@<TRIPOS>MOLECULE
10.pdb
50 50 1 0 0
SMALL
AMBER ff12SB


@<TRIPOS>ATOM
      1 C           0.8740   -0.1380    3.2950 C.3       1 LIG   -0.0654
      2 C           1.7850    0.9350    2.7190 C.3       1 LIG   -0.0562
      3 C           2.8970    0.3800    1.8290 C.3       1 LIG   -0.0536
      4 C           3.8670   -0.5900    2.5080 C.3       1 LIG   -0.0533
      5 C           4.6290   -0.0070    3.7050 C.3       1 LIG   -0.0533
      6 C           5.5860   -1.0320    4.3450 C.3       1 LIG   -0.0533
      7 C           6.6850   -1.5040    3.3850 C.3       1 LIG   -0.0532
      8 C           7.7090   -2.4970    3.9640 C.3       1 LIG   -0.0508
      9 C           7.1000   -3.8120    4.4850 C.3       1 LIG   -0.0265
     10 C           8.1150   -4.8440    5.0300 C.3       1 LIG    0.0625
     11 O           9.0840   -5.1070    4.0130 O.3       1 LIG   -0.3926
     12 C           8.8350   -4.3910    6.3030 C.3       1 LIG    0.0504
     13 C           9.7940   -5.4590    6.8160 C.2       1 LIG    0.2149
     14 O           9.5610   -6.6620    6.7600 O.2       1 LIG   -0.2776
     15 N          10.9310   -4.9570    7.4180 N.am      1 LIG   -0.3028
     16 C          11.9740   -5.8380    7.9400 C.3       1 LIG    0.1107
     17 C          12.9950   -6.2030    6.8810 C.3       1 LIG   -0.0007
     18 C          14.3010   -6.2600    7.6370 C.3       1 LIG    0.0587
     19 O          14.1500   -5.4420    8.7910 O.3       1 LIG   -0.3144
     20 C          12.8230   -5.1750    9.0100 C.2       1 LIG    0.2815
     21 O          12.4140   -4.5040    9.9310 O.2       1 LIG   -0.2644
     22 H           0.1790    0.3080    4.0130 H         1 LIG    0.0230
     23 H           1.4330   -0.9170    3.8200 H         1 LIG    0.0230
     24 H           0.2850   -0.6120    2.5030 H         1 LIG    0.0230
     25 H           2.2160    1.5280    3.5320 H         1 LIG    0.0264
     26 H           1.1750    1.6260    2.1240 H         1 LIG    0.0264
     27 H           3.4680    1.2200    1.4140 H         1 LIG    0.0266
     28 H           2.4430   -0.1350    0.9730 H         1 LIG    0.0266
     29 H           4.5790   -0.9050    1.7390 H         1 LIG    0.0267
     30 H           3.3360   -1.4950    2.8210 H         1 LIG    0.0267
     31 H           3.9180    0.3160    4.4750 H         1 LIG    0.0267
     32 H           5.1870    0.8860    3.3960 H         1 LIG    0.0267
     33 H           4.9910   -1.8850    4.6880 H         1 LIG    0.0267
     34 H           6.0410   -0.5800    5.2350 H         1 LIG    0.0267
     35 H           7.2300   -0.6220    3.0240 H         1 LIG    0.0267
     36 H           6.2320   -1.9720    2.5060 H         1 LIG    0.0267
     37 H           8.2860   -2.0000    4.7490 H         1 LIG    0.0267
     38 H           8.4130   -2.7310    3.1540 H         1 LIG    0.0267
     39 H           6.5700   -4.2800    3.6440 H         1 LIG    0.0293
     40 H           6.3580   -3.6050    5.2610 H         1 LIG    0.0293
     41 H           7.5810   -5.7800    5.2380 H         1 LIG    0.0606
     42 H           8.6270   -5.5930    3.3040 H         1 LIG    0.2105
     43 H           8.1050   -4.2050    7.1000 H         1 LIG    0.0392
     44 H           9.3910   -3.4660    6.1250 H         1 LIG    0.0392
     45 H          11.0820   -3.9550    7.4460 H         1 LIG    0.1502
     46 H          11.5240   -6.7360    8.3660 H         1 LIG    0.0615
     47 H          13.0530   -5.4390    6.0960 H         1 LIG    0.0315
     48 H          12.7690   -7.1540    6.3880 H         1 LIG    0.0315
     49 H          15.1280   -5.8760    7.0330 H         1 LIG    0.0574
     50 H          14.5510   -7.2770    7.9590 H         1 LIG    0.0574
@<TRIPOS>BOND
     1    1    2 1
     2    1   22 1
     3    1   23 1
     4    1   24 1
     5    2    3 1
     6    2   25 1
     7    2   26 1
     8    3    4 1
     9    3   27 1
    10    3   28 1
    11    4    5 1
    12    4   29 1
    13    4   30 1
    14    5    6 1
    15    5   31 1
    16    5   32 1
    17    6    7 1
    18    6   33 1
    19    6   34 1
    20    7    8 1
    21    7   35 1
    22    7   36 1
    23    8    9 1
    24    8   37 1
    25    8   38 1
    26    9   10 1
    27    9   39 1
    28    9   40 1
    29   10   11 1
    30   10   12 1
    31   10   41 1
    32   11   42 1
    33   12   13 1
    34   12   43 1
    35   12   44 1
    36   13   14 2
    37   13   15 am
    38   15   16 1
    39   15   45 1
    40   16   17 1
    41   16   20 1
    42   16   46 1
    43   17   18 1
    44   17   47 1
    45   17   48 1
    46   18   19 1
    47   18   49 1
    48   18   50 1
    49   19   20 1
    50   20   21 2
@<TRIPOS>SUBSTRUCTURE
     1 LIG     1 RESIDUE           4 A     LIG     0 ROOT
