@<TRIPOS>MOLECULE
11.pdb
48 48 1 0 0
SMALL
AMBER ff12SB


@<TRIPOS>ATOM
      1 C          11.0000    5.6340    2.5940 C.3       1 LIG   -0.0654
      2 C           9.8740    5.4620    1.5860 C.3       1 LIG   -0.0562
      3 C          10.0060    4.1330    0.8420 C.3       1 LIG   -0.0536
      4 C           8.8840    3.9380   -0.1760 C.3       1 LIG   -0.0533
      5 C           9.0120    2.5960   -0.9000 C.3       1 LIG   -0.0533
      6 C           7.8720    2.3490   -1.8930 C.3       1 LIG   -0.0533
      7 C           7.7440    3.3860   -3.0160 C.3       1 LIG   -0.0529
      8 C           8.9890    3.4660   -3.9060 C.3       1 LIG   -0.0464
      9 C           8.7920    4.4510   -5.0540 C.3       1 LIG    0.0066
     10 C          10.0210    4.5380   -5.9400 C.2       1 LIG    0.1415
     11 O          10.9210    5.3460   -5.7050 O.2       1 LIG   -0.2992
     12 C          10.1100    3.6070   -7.1200 C.3       1 LIG    0.0832
     13 C          11.3070    2.7010   -7.0380 C.2       1 LIG    0.2197
     14 O          11.2440    1.6510   -6.4060 O.2       1 LIG   -0.2772
     15 N          12.4210    3.1200   -7.7340 N.am      1 LIG   -0.3025
     16 C          13.7290    2.4750   -7.6160 C.3       1 LIG    0.1107
     17 C          13.7580    0.9660   -7.7080 C.3       1 LIG   -0.0007
     18 C          13.8790    0.7370   -9.1910 C.3       1 LIG    0.0587
     19 O          14.7490    1.7630   -9.6460 O.3       1 LIG   -0.3144
     20 C          14.5900    2.8670   -8.8260 C.2       1 LIG    0.2815
     21 O          14.9810    3.9830   -9.0880 O.2       1 LIG   -0.2644
     22 H          10.9370    6.6140    3.0760 H         1 LIG    0.0230
     23 H          11.9770    5.5570    2.1060 H         1 LIG    0.0230
     24 H          10.9440    4.8670    3.3730 H         1 LIG    0.0230
     25 H           9.8950    6.2950    0.8740 H         1 LIG    0.0264
     26 H           8.9110    5.5080    2.1090 H         1 LIG    0.0264
     27 H           9.9970    3.3070    1.5630 H         1 LIG    0.0266
     28 H          10.9730    4.1020    0.3250 H         1 LIG    0.0266
     29 H           8.9190    4.7600   -0.8980 H         1 LIG    0.0267
     30 H           7.9110    3.9870    0.3290 H         1 LIG    0.0267
     31 H           9.0060    1.7840   -0.1610 H         1 LIG    0.0267
     32 H           9.9790    2.5330   -1.4120 H         1 LIG    0.0267
     33 H           6.9250    2.3130   -1.3400 H         1 LIG    0.0267
     34 H           8.0040    1.3560   -2.3400 H         1 LIG    0.0267
     35 H           7.5170    4.3730   -2.5940 H         1 LIG    0.0267
     36 H           6.8760    3.1160   -3.6310 H         1 LIG    0.0267
     37 H           9.2160    2.4700   -4.3040 H         1 LIG    0.0271
     38 H           9.8580    3.7770   -3.3150 H         1 LIG    0.0271
     39 H           8.5890    5.4560   -4.6660 H         1 LIG    0.0347
     40 H           7.9290    4.1720   -5.6680 H         1 LIG    0.0347
     41 H          10.1200    4.1980   -8.0410 H         1 LIG    0.0446
     42 H           9.2180    2.9720   -7.1620 H         1 LIG    0.0446
     43 H          12.4370    4.0870   -8.0540 H         1 LIG    0.1502
     44 H          14.2210    2.8280   -6.7000 H         1 LIG    0.0615
     45 H          12.9120    0.4300   -7.2850 H         1 LIG    0.0315
     46 H          14.6610    0.5940   -7.2070 H         1 LIG    0.0315
     47 H          12.9140    0.8440   -9.7030 H         1 LIG    0.0574
     48 H          14.2960   -0.2440   -9.4150 H         1 LIG    0.0574
@<TRIPOS>BOND
     1    1    2 1
     2    1   22 1
     3    1   23 1
     4    1   24 1
     5    2    3 1
     6    2   25 1
     7    2   26 1
     8    3    4 1
     9    3   27 1
    10    3   28 1
    11    4    5 1
    12    4   29 1
    13    4   30 1
    14    5    6 1
    15    5   31 1
    16    5   32 1
    17    6    7 1
    18    6   33 1
    19    6   34 1
    20    7    8 1
    21    7   35 1
    22    7   36 1
    23    8    9 1
    24    8   37 1
    25    8   38 1
    26    9   10 1
    27    9   39 1
    28    9   40 1
    29   10   11 2
    30   10   12 1
    31   12   13 1
    32   12   41 1
    33   12   42 1
    34   13   14 2
    35   13   15 am
    36   15   16 1
    37   15   43 1
    38   16   17 1
    39   16   20 1
    40   16   44 1
    41   17   18 1
    42   17   45 1
    43   17   46 1
    44   18   19 1
    45   18   47 1
    46   18   48 1
    47   19   20 1
    48   20   21 2
@<TRIPOS>SUBSTRUCTURE
     1 LIG     1 RESIDUE           4 A     LIG     0 ROOT
