
########## Name:		1.pdb_1
########## HA_RMSDs:		32.4524
########## HA_RMSDh:		32.3292
########## HA_RMSDm:		25.8255
##########    Grid Score:          -20.847395
##########      Grid_vdw:          -20.213705
##########       Grid_es:           -0.633690
##########    Int_energy:           14.910986

@<TRIPOS>MOLECULE
1.pdb
 25 25 1 0 0
SMALL
AMBER ff12SB


@<TRIPOS>ATOM
      1 C         -16.7028   -0.1456   18.6476 C.3     1  LIG        -0.0649
      2 C         -16.2086   -1.0867   19.7382 C.3     1  LIG        -0.0476
      3 C         -15.1863   -0.4295   20.6679 C.3     1  LIG         0.0241
      4 C         -15.7594    0.7914   21.3792 C.2     1  LIG         0.2123
      5 O         -16.6448    1.4984   20.9090 O.2     1  LIG        -0.2777
      6 N         -15.2106    1.0231   22.6227 N.am    1  LIG        -0.3028
      7 C         -15.6316    2.1470   23.4543 C.3     1  LIG         0.1107
      8 C         -16.7841    1.8160   24.3782 C.3     1  LIG        -0.0007
      9 C         -16.5600    2.7473   25.5407 C.3     1  LIG         0.0587
     10 O         -15.1462    2.8993   25.6504 O.3     1  LIG        -0.3144
     11 C         -14.5653    2.5759   24.4533 C.2     1  LIG         0.2815
     12 O         -13.3685    2.6398   24.2328 O.2     1  LIG        -0.2644
     13 H         -17.4713   -0.6398   18.0446 H       1  LIG         0.0231
     14 H         -15.8900    0.1509   17.9769 H       1  LIG         0.0231
     15 H         -17.1435    0.7603   19.0770 H       1  LIG         0.0231
     16 H         -15.7720   -1.9772   19.2701 H       1  LIG         0.0269
     17 H         -17.0684   -1.4281   20.3254 H       1  LIG         0.0269
     18 H         -14.3128   -0.1108   20.0893 H       1  LIG         0.0364
     19 H         -14.8522   -1.1511   21.4231 H       1  LIG         0.0364
     20 H         -14.3453    0.5544   22.8737 H       1  LIG         0.1502
     21 H         -15.8662    3.0093   22.8176 H       1  LIG         0.0615
     22 H         -16.7190    0.7748   24.7160 H       1  LIG         0.0315
     23 H         -17.7651    1.9575   23.9160 H       1  LIG         0.0315
     24 H         -16.9604    2.3336   26.4715 H       1  LIG         0.0574
     25 H         -17.0039    3.7350   25.3754 H       1  LIG         0.0574
@<TRIPOS>BOND
     1     1     2    1
     2     1    13    1
     3     1    14    1
     4     1    15    1
     5     2     3    1
     6     2    16    1
     7     2    17    1
     8     3     4    1
     9     3    18    1
    10     3    19    1
    11     4     5    2
    12     4     6   am
    13     6     7    1
    14     6    20    1
    15     7     8    1
    16     7    11    1
    17     7    21    1
    18     8     9    1
    19     8    22    1
    20     8    23    1
    21     9    10    1
    22     9    24    1
    23     9    25    1
    24    10    11    1
    25    11    12    2
@<TRIPOS>SUBSTRUCTURE
     1 LIG         1 TEMP              0 ****  ****    0 ROOT


########## Name:		1.pdb_2
########## HA_RMSDs:		32.7133
########## HA_RMSDh:		32.5923
########## HA_RMSDm:		26.0154
##########    Grid Score:          -19.484283
##########      Grid_vdw:          -18.465317
##########       Grid_es:           -1.018967
##########    Int_energy:           12.633549

@<TRIPOS>MOLECULE
1.pdb
 25 25 1 0 0
SMALL
AMBER ff12SB


@<TRIPOS>ATOM
      1 C         -16.9456   -0.5240   19.3556 C.3     1  LIG        -0.0649
      2 C         -15.5207   -0.6992   19.8640 C.3     1  LIG        -0.0476
      3 C         -15.4624   -1.0408   21.3543 C.3     1  LIG         0.0241
      4 C         -16.0947    0.0458   22.2172 C.2     1  LIG         0.2123
      5 O         -17.2762    0.0497   22.5471 O.2     1  LIG        -0.2777
      6 N         -15.2106    1.0231   22.6227 N.am    1  LIG        -0.3028
      7 C         -15.6316    2.1470   23.4543 C.3     1  LIG         0.1107
      8 C         -16.7841    1.8160   24.3782 C.3     1  LIG        -0.0007
      9 C         -16.5600    2.7473   25.5407 C.3     1  LIG         0.0587
     10 O         -15.1462    2.8993   25.6504 O.3     1  LIG        -0.3144
     11 C         -14.5653    2.5759   24.4533 C.2     1  LIG         0.2815
     12 O         -13.3685    2.6398   24.2328 O.2     1  LIG        -0.2644
     13 H         -16.9395   -0.3376   18.2769 H       1  LIG         0.0231
     14 H         -17.4412    0.3237   19.8393 H       1  LIG         0.0231
     15 H         -17.5436   -1.4232   19.5380 H       1  LIG         0.0231
     16 H         -14.9563    0.2204   19.6674 H       1  LIG         0.0269
     17 H         -15.0365   -1.4958   19.2883 H       1  LIG         0.0269
     18 H         -14.4190   -1.1614   21.6646 H       1  LIG         0.0364
     19 H         -15.9864   -1.9860   21.5402 H       1  LIG         0.0364
     20 H         -14.3121    1.0985   22.1553 H       1  LIG         0.1502
     21 H         -15.8662    3.0093   22.8176 H       1  LIG         0.0615
     22 H         -16.7190    0.7748   24.7160 H       1  LIG         0.0315
     23 H         -17.7651    1.9575   23.9160 H       1  LIG         0.0315
     24 H         -16.9604    2.3336   26.4715 H       1  LIG         0.0574
     25 H         -17.0039    3.7350   25.3754 H       1  LIG         0.0574
@<TRIPOS>BOND
     1     1     2    1
     2     1    13    1
     3     1    14    1
     4     1    15    1
     5     2     3    1
     6     2    16    1
     7     2    17    1
     8     3     4    1
     9     3    18    1
    10     3    19    1
    11     4     5    2
    12     4     6   am
    13     6     7    1
    14     6    20    1
    15     7     8    1
    16     7    11    1
    17     7    21    1
    18     8     9    1
    19     8    22    1
    20     8    23    1
    21     9    10    1
    22     9    24    1
    23     9    25    1
    24    10    11    1
    25    11    12    2
@<TRIPOS>SUBSTRUCTURE
     1 LIG         1 TEMP              0 ****  ****    0 ROOT


########## Name:		1.pdb_3
########## HA_RMSDs:		32.3678
########## HA_RMSDh:		32.2339
########## HA_RMSDm:		25.2548
##########    Grid Score:          -15.594908
##########      Grid_vdw:          -14.981280
##########       Grid_es:           -0.613627
##########    Int_energy:           11.840401

@<TRIPOS>MOLECULE
1.pdb
 25 25 1 0 0
SMALL
AMBER ff12SB


@<TRIPOS>ATOM
      1 C         -16.6171   -0.0786   18.5962 C.3     1  LIG        -0.0649
      2 C         -15.2101   -0.2730   19.1460 C.3     1  LIG        -0.0476
      3 C         -15.1863   -0.4295   20.6679 C.3     1  LIG         0.0241
      4 C         -15.7594    0.7914   21.3792 C.2     1  LIG         0.2123
      5 O         -16.6448    1.4984   20.9090 O.2     1  LIG        -0.2777
      6 N         -15.2106    1.0231   22.6227 N.am    1  LIG        -0.3028
      7 C         -15.6316    2.1470   23.4543 C.3     1  LIG         0.1107
      8 C         -16.7841    1.8160   24.3782 C.3     1  LIG        -0.0007
      9 C         -16.5600    2.7473   25.5407 C.3     1  LIG         0.0587
     10 O         -15.1462    2.8993   25.6504 O.3     1  LIG        -0.3144
     11 C         -14.5653    2.5759   24.4533 C.2     1  LIG         0.2815
     12 O         -13.3685    2.6398   24.2328 O.2     1  LIG        -0.2644
     13 H         -16.5898   -0.0285   17.5030 H       1  LIG         0.0231
     14 H         -17.0647    0.8506   18.9631 H       1  LIG         0.0231
     15 H         -17.2702   -0.9111   18.8783 H       1  LIG         0.0231
     16 H         -14.5892    0.5800   18.8467 H       1  LIG         0.0269
     17 H         -14.7699   -1.1623   18.6813 H       1  LIG         0.0269
     18 H         -14.1551   -0.5720   21.0081 H       1  LIG         0.0364
     19 H         -15.7685   -1.3116   20.9604 H       1  LIG         0.0364
     20 H         -14.3453    0.5544   22.8737 H       1  LIG         0.1502
     21 H         -15.8662    3.0093   22.8176 H       1  LIG         0.0615
     22 H         -16.7190    0.7748   24.7160 H       1  LIG         0.0315
     23 H         -17.7651    1.9575   23.9160 H       1  LIG         0.0315
     24 H         -16.9604    2.3336   26.4715 H       1  LIG         0.0574
     25 H         -17.0039    3.7350   25.3754 H       1  LIG         0.0574
@<TRIPOS>BOND
     1     1     2    1
     2     1    13    1
     3     1    14    1
     4     1    15    1
     5     2     3    1
     6     2    16    1
     7     2    17    1
     8     3     4    1
     9     3    18    1
    10     3    19    1
    11     4     5    2
    12     4     6   am
    13     6     7    1
    14     6    20    1
    15     7     8    1
    16     7    11    1
    17     7    21    1
    18     8     9    1
    19     8    22    1
    20     8    23    1
    21     9    10    1
    22     9    24    1
    23     9    25    1
    24    10    11    1
    25    11    12    2
@<TRIPOS>SUBSTRUCTURE
     1 LIG         1 TEMP              0 ****  ****    0 ROOT


########## Name:		1.pdb_4
########## HA_RMSDs:		32.0628
########## HA_RMSDh:		31.9954
########## HA_RMSDm:		24.8506
##########    Grid Score:           -8.319645
##########      Grid_vdw:           -9.378784
##########       Grid_es:            1.059140
##########    Int_energy:            1.551743

@<TRIPOS>MOLECULE
1.pdb
 25 25 1 0 0
SMALL
AMBER ff12SB


@<TRIPOS>ATOM
      1 C         -15.8087   -1.1108   18.1158 C.3     1  LIG        -0.0649
      2 C         -16.1150   -0.0150   19.1281 C.3     1  LIG        -0.0476
      3 C         -15.5898   -0.3396   20.5281 C.3     1  LIG         0.0241
      4 C         -15.9040    0.7665   21.5295 C.2     1  LIG         0.2123
      5 O         -16.8994    1.4804   21.4632 O.2     1  LIG        -0.2777
      6 N         -14.9774    0.8824   22.5439 N.am    1  LIG        -0.3028
      7 C         -15.1077    1.8857   23.5967 C.3     1  LIG         0.1107
      8 C         -15.8890    1.4010   24.7992 C.3     1  LIG        -0.0007
      9 C         -15.3000    2.2056   25.9282 C.3     1  LIG         0.0587
     10 O         -13.9301    2.4088   25.5876 O.3     1  LIG        -0.3144
     11 C         -13.7743    2.2485   24.2367 C.2     1  LIG         0.2815
     12 O         -12.7176    2.3913   23.6469 O.2     1  LIG        -0.2644
     13 H         -16.1520   -0.8099   17.1208 H       1  LIG         0.0231
     14 H         -16.3130   -2.0471   18.3752 H       1  LIG         0.0231
     15 H         -14.7323   -1.3038   18.0558 H       1  LIG         0.0231
     16 H         -17.1993    0.1461   19.1621 H       1  LIG         0.0269
     17 H         -15.6674    0.9223   18.7792 H       1  LIG         0.0269
     18 H         -14.5032   -0.4720   20.4930 H       1  LIG         0.0364
     19 H         -16.0373   -1.2746   20.8859 H       1  LIG         0.0364
     20 H         -14.0747    0.4287   22.4400 H       1  LIG         0.1502
     21 H         -15.5446    2.8023   23.1806 H       1  LIG         0.0615
     22 H         -15.7096    0.3326   24.9688 H       1  LIG         0.0315
     23 H         -16.9684    1.5483   24.7034 H       1  LIG         0.0315
     24 H         -15.3686    1.6724   26.8815 H       1  LIG         0.0574
     25 H         -15.7798    3.1842   26.0375 H       1  LIG         0.0574
@<TRIPOS>BOND
     1     1     2    1
     2     1    13    1
     3     1    14    1
     4     1    15    1
     5     2     3    1
     6     2    16    1
     7     2    17    1
     8     3     4    1
     9     3    18    1
    10     3    19    1
    11     4     5    2
    12     4     6   am
    13     6     7    1
    14     6    20    1
    15     7     8    1
    16     7    11    1
    17     7    21    1
    18     8     9    1
    19     8    22    1
    20     8    23    1
    21     9    10    1
    22     9    24    1
    23     9    25    1
    24    10    11    1
    25    11    12    2
@<TRIPOS>SUBSTRUCTURE
     1 LIG         1 TEMP              0 ****  ****    0 ROOT


########## Name:		1.pdb_5
########## HA_RMSDs:		31.9629
########## HA_RMSDh:		31.8624
########## HA_RMSDm:		24.1063
##########    Grid Score:           16.008364
##########      Grid_vdw:           14.959346
##########       Grid_es:            1.049018
##########    Int_energy:            1.272421

@<TRIPOS>MOLECULE
1.pdb
 25 25 1 0 0
SMALL
AMBER ff12SB


@<TRIPOS>ATOM
      1 C         -14.4061   -0.9314   18.3577 C.3     1  LIG        -0.0649
      2 C         -14.7290    0.1625   19.3670 C.3     1  LIG        -0.0476
      3 C         -15.5898   -0.3396   20.5281 C.3     1  LIG         0.0241
      4 C         -15.9040    0.7665   21.5295 C.2     1  LIG         0.2123
      5 O         -16.8994    1.4804   21.4632 O.2     1  LIG        -0.2777
      6 N         -14.9774    0.8824   22.5439 N.am    1  LIG        -0.3028
      7 C         -15.1077    1.8857   23.5967 C.3     1  LIG         0.1107
      8 C         -15.8890    1.4010   24.7992 C.3     1  LIG        -0.0007
      9 C         -15.3000    2.2056   25.9282 C.3     1  LIG         0.0587
     10 O         -13.9301    2.4088   25.5876 O.3     1  LIG        -0.3144
     11 C         -13.7743    2.2485   24.2367 C.2     1  LIG         0.2815
     12 O         -12.7176    2.3913   23.6469 O.2     1  LIG        -0.2644
     13 H         -13.7440   -0.5403   17.5785 H       1  LIG         0.0231
     14 H         -15.3121   -1.3059   17.8705 H       1  LIG         0.0231
     15 H         -13.8987   -1.7749   18.8377 H       1  LIG         0.0231
     16 H         -15.2382    0.9852   18.8507 H       1  LIG         0.0269
     17 H         -13.7899    0.5689   19.7588 H       1  LIG         0.0269
     18 H         -15.0644   -1.1419   21.0569 H       1  LIG         0.0364
     19 H         -16.5339   -0.7438   20.1437 H       1  LIG         0.0364
     20 H         -14.0747    0.4287   22.4400 H       1  LIG         0.1502
     21 H         -15.5446    2.8023   23.1806 H       1  LIG         0.0615
     22 H         -15.7096    0.3326   24.9688 H       1  LIG         0.0315
     23 H         -16.9684    1.5483   24.7034 H       1  LIG         0.0315
     24 H         -15.3686    1.6724   26.8815 H       1  LIG         0.0574
     25 H         -15.7798    3.1842   26.0375 H       1  LIG         0.0574
@<TRIPOS>BOND
     1     1     2    1
     2     1    13    1
     3     1    14    1
     4     1    15    1
     5     2     3    1
     6     2    16    1
     7     2    17    1
     8     3     4    1
     9     3    18    1
    10     3    19    1
    11     4     5    2
    12     4     6   am
    13     6     7    1
    14     6    20    1
    15     7     8    1
    16     7    11    1
    17     7    21    1
    18     8     9    1
    19     8    22    1
    20     8    23    1
    21     9    10    1
    22     9    24    1
    23     9    25    1
    24    10    11    1
    25    11    12    2
@<TRIPOS>SUBSTRUCTURE
     1 LIG         1 TEMP              0 ****  ****    0 ROOT


########## Name:		1.pdb_6
########## HA_RMSDs:		33.1879
########## HA_RMSDh:		33.0784
########## HA_RMSDm:		26.5834
##########    Grid Score:           21.233940
##########      Grid_vdw:           20.489033
##########       Grid_es:            0.744908
##########    Int_energy:            3.077964

@<TRIPOS>MOLECULE
1.pdb
 25 25 1 0 0
SMALL
AMBER ff12SB


@<TRIPOS>ATOM
      1 C         -16.5075    0.7980   19.8268 C.3     1  LIG        -0.0649
      2 C         -16.1408    0.9818   21.2935 C.3     1  LIG        -0.0476
      3 C         -14.6994    0.5691   21.5988 C.3     1  LIG         0.0241
      4 C         -14.3477    0.7591   23.0703 C.2     1  LIG         0.2123
      5 O         -13.5163    0.0796   23.6634 O.2     1  LIG        -0.2777
      6 N         -15.0322    1.7887   23.6805 N.am    1  LIG        -0.3028
      7 C         -14.8299    2.1221   25.0876 C.3     1  LIG         0.1107
      8 C         -13.7350    3.1423   25.3150 C.3     1  LIG        -0.0007
      9 C         -14.1770    3.8324   26.5790 C.3     1  LIG         0.0587
     10 O         -15.6028    3.8221   26.5495 O.3     1  LIG        -0.3144
     11 C         -16.0277    2.8307   25.7059 C.2     1  LIG         0.2815
     12 O         -17.1981    2.5602   25.5009 O.2     1  LIG        -0.2644
     13 H         -17.5253    1.1583   19.6459 H       1  LIG         0.0231
     14 H         -16.4682   -0.2560   19.5339 H       1  LIG         0.0231
     15 H         -15.8307    1.3623   19.1764 H       1  LIG         0.0231
     16 H         -16.8364    0.4004   21.9106 H       1  LIG         0.0269
     17 H         -16.2834    2.0342   21.5632 H       1  LIG         0.0269
     18 H         -14.0083    1.1721   21.0003 H       1  LIG         0.0364
     19 H         -14.5504   -0.4850   21.3355 H       1  LIG         0.0364
     20 H         -15.8530    2.1735   23.2225 H       1  LIG         0.1502
     21 H         -14.6455    1.2049   25.6611 H       1  LIG         0.0615
     22 H         -13.7027    3.8620   24.4884 H       1  LIG         0.0315
     23 H         -12.7406    2.6974   25.4108 H       1  LIG         0.0315
     24 H         -13.8157    4.8646   26.6219 H       1  LIG         0.0574
     25 H         -13.8441    3.3056   27.4799 H       1  LIG         0.0574
@<TRIPOS>BOND
     1     1     2    1
     2     1    13    1
     3     1    14    1
     4     1    15    1
     5     2     3    1
     6     2    16    1
     7     2    17    1
     8     3     4    1
     9     3    18    1
    10     3    19    1
    11     4     5    2
    12     4     6   am
    13     6     7    1
    14     6    20    1
    15     7     8    1
    16     7    11    1
    17     7    21    1
    18     8     9    1
    19     8    22    1
    20     8    23    1
    21     9    10    1
    22     9    24    1
    23     9    25    1
    24    10    11    1
    25    11    12    2
@<TRIPOS>SUBSTRUCTURE
     1 LIG         1 TEMP              0 ****  ****    0 ROOT


########## Name:		1.pdb_7
########## HA_RMSDs:		32.6299
########## HA_RMSDh:		32.4912
########## HA_RMSDm:		25.2504
##########    Grid Score:           22.876644
##########      Grid_vdw:           23.912531
##########       Grid_es:           -1.035887
##########    Int_energy:           14.132610

@<TRIPOS>MOLECULE
1.pdb
 25 25 1 0 0
SMALL
AMBER ff12SB


@<TRIPOS>ATOM
      1 C         -14.7925    0.5956   19.5280 C.3     1  LIG        -0.0649
      2 C         -15.5207   -0.6992   19.8640 C.3     1  LIG        -0.0476
      3 C         -15.4624   -1.0408   21.3543 C.3     1  LIG         0.0241
      4 C         -16.0947    0.0458   22.2172 C.2     1  LIG         0.2123
      5 O         -17.2762    0.0497   22.5471 O.2     1  LIG        -0.2777
      6 N         -15.2106    1.0231   22.6227 N.am    1  LIG        -0.3028
      7 C         -15.6316    2.1470   23.4543 C.3     1  LIG         0.1107
      8 C         -16.7841    1.8160   24.3782 C.3     1  LIG        -0.0007
      9 C         -16.5600    2.7473   25.5407 C.3     1  LIG         0.0587
     10 O         -15.1462    2.8993   25.6504 O.3     1  LIG        -0.3144
     11 C         -14.5653    2.5759   24.4533 C.2     1  LIG         0.2815
     12 O         -13.3685    2.6398   24.2328 O.2     1  LIG        -0.2644
     13 H         -14.9093    0.8274   18.4645 H       1  LIG         0.0231
     14 H         -13.7210    0.5176   19.7381 H       1  LIG         0.0231
     15 H         -15.1963    1.4365   20.1017 H       1  LIG         0.0231
     16 H         -15.0866   -1.5158   19.2745 H       1  LIG         0.0269
     17 H         -16.5670   -0.6062   19.5521 H       1  LIG         0.0269
     18 H         -14.4190   -1.1614   21.6646 H       1  LIG         0.0364
     19 H         -15.9864   -1.9860   21.5402 H       1  LIG         0.0364
     20 H         -14.3121    1.0985   22.1553 H       1  LIG         0.1502
     21 H         -15.8662    3.0093   22.8176 H       1  LIG         0.0615
     22 H         -16.7190    0.7748   24.7160 H       1  LIG         0.0315
     23 H         -17.7651    1.9575   23.9160 H       1  LIG         0.0315
     24 H         -16.9604    2.3336   26.4715 H       1  LIG         0.0574
     25 H         -17.0039    3.7350   25.3754 H       1  LIG         0.0574
@<TRIPOS>BOND
     1     1     2    1
     2     1    13    1
     3     1    14    1
     4     1    15    1
     5     2     3    1
     6     2    16    1
     7     2    17    1
     8     3     4    1
     9     3    18    1
    10     3    19    1
    11     4     5    2
    12     4     6   am
    13     6     7    1
    14     6    20    1
    15     7     8    1
    16     7    11    1
    17     7    21    1
    18     8     9    1
    19     8    22    1
    20     8    23    1
    21     9    10    1
    22     9    24    1
    23     9    25    1
    24    10    11    1
    25    11    12    2
@<TRIPOS>SUBSTRUCTURE
     1 LIG         1 TEMP              0 ****  ****    0 ROOT

