
########## Name:		1.pdb
########## HA_RMSDs:		32.4524
########## HA_RMSDh:		32.3292
########## HA_RMSDm:		25.8255
########## Cluster Size:	6
##########    Grid Score:          -20.847395
##########      Grid_vdw:          -20.213705
##########       Grid_es:           -0.633690
##########    Int_energy:           14.910986

@<TRIPOS>MOLECULE
1.pdb
 25 25 1 0 0
SMALL
AMBER ff12SB


@<TRIPOS>ATOM
      1 C         -16.7028   -0.1456   18.6476 C.3     1  LIG        -0.0649
      2 C         -16.2086   -1.0867   19.7382 C.3     1  LIG        -0.0476
      3 C         -15.1863   -0.4295   20.6679 C.3     1  LIG         0.0241
      4 C         -15.7594    0.7914   21.3792 C.2     1  LIG         0.2123
      5 O         -16.6448    1.4984   20.9090 O.2     1  LIG        -0.2777
      6 N         -15.2106    1.0231   22.6227 N.am    1  LIG        -0.3028
      7 C         -15.6316    2.1470   23.4543 C.3     1  LIG         0.1107
      8 C         -16.7841    1.8160   24.3782 C.3     1  LIG        -0.0007
      9 C         -16.5600    2.7473   25.5407 C.3     1  LIG         0.0587
     10 O         -15.1462    2.8993   25.6504 O.3     1  LIG        -0.3144
     11 C         -14.5653    2.5759   24.4533 C.2     1  LIG         0.2815
     12 O         -13.3685    2.6398   24.2328 O.2     1  LIG        -0.2644
     13 H         -17.4713   -0.6398   18.0446 H       1  LIG         0.0231
     14 H         -15.8900    0.1509   17.9769 H       1  LIG         0.0231
     15 H         -17.1435    0.7603   19.0770 H       1  LIG         0.0231
     16 H         -15.7720   -1.9772   19.2701 H       1  LIG         0.0269
     17 H         -17.0684   -1.4281   20.3254 H       1  LIG         0.0269
     18 H         -14.3128   -0.1108   20.0893 H       1  LIG         0.0364
     19 H         -14.8522   -1.1511   21.4231 H       1  LIG         0.0364
     20 H         -14.3453    0.5544   22.8737 H       1  LIG         0.1502
     21 H         -15.8662    3.0093   22.8176 H       1  LIG         0.0615
     22 H         -16.7190    0.7748   24.7160 H       1  LIG         0.0315
     23 H         -17.7651    1.9575   23.9160 H       1  LIG         0.0315
     24 H         -16.9604    2.3336   26.4715 H       1  LIG         0.0574
     25 H         -17.0039    3.7350   25.3754 H       1  LIG         0.0574
@<TRIPOS>BOND
     1     1     2    1
     2     1    13    1
     3     1    14    1
     4     1    15    1
     5     2     3    1
     6     2    16    1
     7     2    17    1
     8     3     4    1
     9     3    18    1
    10     3    19    1
    11     4     5    2
    12     4     6   am
    13     6     7    1
    14     6    20    1
    15     7     8    1
    16     7    11    1
    17     7    21    1
    18     8     9    1
    19     8    22    1
    20     8    23    1
    21     9    10    1
    22     9    24    1
    23     9    25    1
    24    10    11    1
    25    11    12    2
@<TRIPOS>SUBSTRUCTURE
     1 LIG         1 TEMP              0 ****  ****    0 ROOT


########## Name:		1.pdb
########## HA_RMSDs:		33.1879
########## HA_RMSDh:		33.0784
########## HA_RMSDm:		26.5834
########## Cluster Size:	1
##########    Grid Score:           21.233940
##########      Grid_vdw:           20.489033
##########       Grid_es:            0.744908
##########    Int_energy:            3.077964

@<TRIPOS>MOLECULE
1.pdb
 25 25 1 0 0
SMALL
AMBER ff12SB


@<TRIPOS>ATOM
      1 C         -16.5075    0.7980   19.8268 C.3     1  LIG        -0.0649
      2 C         -16.1408    0.9818   21.2935 C.3     1  LIG        -0.0476
      3 C         -14.6994    0.5691   21.5988 C.3     1  LIG         0.0241
      4 C         -14.3477    0.7591   23.0703 C.2     1  LIG         0.2123
      5 O         -13.5163    0.0796   23.6634 O.2     1  LIG        -0.2777
      6 N         -15.0322    1.7887   23.6805 N.am    1  LIG        -0.3028
      7 C         -14.8299    2.1221   25.0876 C.3     1  LIG         0.1107
      8 C         -13.7350    3.1423   25.3150 C.3     1  LIG        -0.0007
      9 C         -14.1770    3.8324   26.5790 C.3     1  LIG         0.0587
     10 O         -15.6028    3.8221   26.5495 O.3     1  LIG        -0.3144
     11 C         -16.0277    2.8307   25.7059 C.2     1  LIG         0.2815
     12 O         -17.1981    2.5602   25.5009 O.2     1  LIG        -0.2644
     13 H         -17.5253    1.1583   19.6459 H       1  LIG         0.0231
     14 H         -16.4682   -0.2560   19.5339 H       1  LIG         0.0231
     15 H         -15.8307    1.3623   19.1764 H       1  LIG         0.0231
     16 H         -16.8364    0.4004   21.9106 H       1  LIG         0.0269
     17 H         -16.2834    2.0342   21.5632 H       1  LIG         0.0269
     18 H         -14.0083    1.1721   21.0003 H       1  LIG         0.0364
     19 H         -14.5504   -0.4850   21.3355 H       1  LIG         0.0364
     20 H         -15.8530    2.1735   23.2225 H       1  LIG         0.1502
     21 H         -14.6455    1.2049   25.6611 H       1  LIG         0.0615
     22 H         -13.7027    3.8620   24.4884 H       1  LIG         0.0315
     23 H         -12.7406    2.6974   25.4108 H       1  LIG         0.0315
     24 H         -13.8157    4.8646   26.6219 H       1  LIG         0.0574
     25 H         -13.8441    3.3056   27.4799 H       1  LIG         0.0574
@<TRIPOS>BOND
     1     1     2    1
     2     1    13    1
     3     1    14    1
     4     1    15    1
     5     2     3    1
     6     2    16    1
     7     2    17    1
     8     3     4    1
     9     3    18    1
    10     3    19    1
    11     4     5    2
    12     4     6   am
    13     6     7    1
    14     6    20    1
    15     7     8    1
    16     7    11    1
    17     7    21    1
    18     8     9    1
    19     8    22    1
    20     8    23    1
    21     9    10    1
    22     9    24    1
    23     9    25    1
    24    10    11    1
    25    11    12    2
@<TRIPOS>SUBSTRUCTURE
     1 LIG         1 TEMP              0 ****  ****    0 ROOT

