@<TRIPOS>MOLECULE
2.pdb
24 24 1 0 0
SMALL
AMBER ff12SB


@<TRIPOS>ATOM
      1 C           3.0340    1.5300    3.0530 C.3       1 LIG   -0.0051
      2 C           3.1880    2.2510    1.7390 C.2       1 LIG    0.1384
      3 O           2.8190    3.4210    1.6120 O.2       1 LIG   -0.2995
      4 C           3.7830    1.5050    0.5740 C.3       1 LIG    0.0829
      5 C           5.1890    1.0260    0.8130 C.2       1 LIG    0.2197
      6 O           5.4720    0.2530    1.7250 O.2       1 LIG   -0.2772
      7 N           6.1220    1.4750   -0.0940 N.am      1 LIG   -0.3025
      8 C           7.5260    1.1080    0.0350 C.3       1 LIG    0.1107
      9 C           7.7800   -0.3760   -0.1350 C.3       1 LIG   -0.0007
     10 C           9.1510   -0.4210   -0.7550 C.3       1 LIG    0.0587
     11 O           9.2840    0.7770   -1.5170 O.3       1 LIG   -0.3144
     12 C           8.3850    1.6990   -1.0680 C.2       1 LIG    0.2815
     13 O           8.2980    2.8380   -1.5050 O.2       1 LIG   -0.2644
     14 H           2.3420    2.0870    3.6920 H         1 LIG    0.0310
     15 H           3.9990    1.4570    3.5560 H         1 LIG    0.0310
     16 H           2.6140    0.5330    2.8850 H         1 LIG    0.0310
     17 H           3.7440    2.1540   -0.3070 H         1 LIG    0.0446
     18 H           3.1530    0.6380    0.3530 H         1 LIG    0.0446
     19 H           5.9150    2.3080   -0.6400 H         1 LIG    0.1502
     20 H           7.9060    1.4710    0.9960 H         1 LIG    0.0615
     21 H           7.0450   -0.8250   -0.8130 H         1 LIG    0.0315
     22 H           7.7350   -0.9270    0.8090 H         1 LIG    0.0315
     23 H           9.2650   -1.2920   -1.4110 H         1 LIG    0.0574
     24 H           9.9450   -0.4480   -0.0020 H         1 LIG    0.0574
@<TRIPOS>BOND
     1    1    2 1
     2    1   14 1
     3    1   15 1
     4    1   16 1
     5    2    3 2
     6    2    4 1
     7    4    5 1
     8    4   17 1
     9    4   18 1
    10    5    6 2
    11    5    7 am
    12    7    8 1
    13    7   19 1
    14    8    9 1
    15    8   12 1
    16    8   20 1
    17    9   10 1
    18    9   21 1
    19    9   22 1
    20   10   11 1
    21   10   23 1
    22   10   24 1
    23   11   12 1
    24   12   13 2
@<TRIPOS>SUBSTRUCTURE
     1 LIG     1 RESIDUE           4 A     LIG     0 ROOT
