
########## Name:		2.pdb
########## HA_RMSDs:		31.4368
########## HA_RMSDh:		31.2767
########## HA_RMSDm:		24.6713
########## Cluster Size:	5
##########    Grid Score:          -21.510498
##########      Grid_vdw:          -20.770874
##########       Grid_es:           -0.739623
##########    Int_energy:            1.765104

@<TRIPOS>MOLECULE
2.pdb
 24 24 1 0 0
SMALL
AMBER ff12SB


@<TRIPOS>ATOM
      1 C         -16.2657   -0.5324   18.2827 C.3     1  LIG        -0.0051
      2 C         -16.2335   -1.0102   19.7113 C.2     1  LIG         0.1384
      3 O         -17.0192   -1.8745   20.1074 O.2     1  LIG        -0.2995
      4 C         -15.2345   -0.3935   20.6543 C.3     1  LIG         0.0829
      5 C         -15.7507    0.8201   21.3783 C.2     1  LIG         0.2197
      6 O         -16.6212    1.5455   20.9037 O.2     1  LIG        -0.2772
      7 N         -15.2150    1.0267   22.6294 N.am    1  LIG        -0.3025
      8 C         -15.6262    2.1659   23.4391 C.3     1  LIG         0.1107
      9 C         -16.8118    1.8727   24.3357 C.3     1  LIG        -0.0007
     10 C         -16.5585    2.7446   25.5364 C.3     1  LIG         0.0587
     11 O         -15.1422    2.8675   25.6487 O.3     1  LIG        -0.3144
     12 C         -14.5676    2.5749   24.4470 C.2     1  LIG         0.2815
     13 O         -13.3655    2.6389   24.2305 O.2     1  LIG        -0.2644
     14 H         -17.2040   -0.8484   17.8169 H       1  LIG         0.0310
     15 H         -15.4320   -0.9610   17.7252 H       1  LIG         0.0310
     16 H         -16.2231    0.5612   18.2536 H       1  LIG         0.0310
     17 H         -14.3319   -0.1455   20.0863 H       1  LIG         0.0446
     18 H         -14.9422   -1.1429   21.3962 H       1  LIG         0.0446
     19 H         -14.3171    0.6051   22.8550 H       1  LIG         0.1502
     20 H         -15.8227    3.0211   22.7836 H       1  LIG         0.0615
     21 H         -16.8279    0.8177   24.6329 H       1  LIG         0.0315
     22 H         -17.7714    2.0939   23.8593 H       1  LIG         0.0315
     23 H         -16.9651    2.2953   26.4500 H       1  LIG         0.0574
     24 H         -16.9894    3.7441   25.4202 H       1  LIG         0.0574
@<TRIPOS>BOND
     1     1     2    1
     2     1    14    1
     3     1    15    1
     4     1    16    1
     5     2     3    2
     6     2     4    1
     7     4     5    1
     8     4    17    1
     9     4    18    1
    10     5     6    2
    11     5     7   am
    12     7     8    1
    13     7    19    1
    14     8     9    1
    15     8    12    1
    16     8    20    1
    17     9    10    1
    18     9    21    1
    19     9    22    1
    20    10    11    1
    21    10    23    1
    22    10    24    1
    23    11    12    1
    24    12    13    2
@<TRIPOS>SUBSTRUCTURE
     1 LIG         1 TEMP              0 ****  ****    0 ROOT


########## Name:		2.pdb
########## HA_RMSDs:		31.3335
########## HA_RMSDh:		31.1473
########## HA_RMSDm:		24.4493
########## Cluster Size:	2
##########    Grid Score:          -17.124840
##########      Grid_vdw:          -17.300564
##########       Grid_es:            0.175724
##########    Int_energy:            2.335351

@<TRIPOS>MOLECULE
2.pdb
 24 24 1 0 0
SMALL
AMBER ff12SB


@<TRIPOS>ATOM
      1 C         -15.7149   -1.3483   18.4791 C.3     1  LIG        -0.0051
      2 C         -15.2902   -0.5998   19.7159 C.2     1  LIG         0.1384
      3 O         -14.0962   -0.4291   19.9736 O.2     1  LIG        -0.2995
      4 C         -16.3558   -0.0821   20.6454 C.3     1  LIG         0.0829
      5 C         -15.9254   -0.0135   22.0854 C.2     1  LIG         0.2197
      6 O         -16.0400   -0.9683   22.8500 O.2     1  LIG        -0.2772
      7 N         -15.3483    1.1764   22.4672 N.am    1  LIG        -0.3025
      8 C         -14.8870    1.3780   23.8344 C.3     1  LIG         0.1107
      9 C         -13.6960    2.3088   23.9385 C.3     1  LIG        -0.0007
     10 C         -13.9006    2.9807   25.2700 C.3     1  LIG         0.0587
     11 O         -15.3101    3.0259   25.4819 O.3     1  LIG        -0.3144
     12 C         -15.9144    2.0899   24.6955 C.2     1  LIG         0.2815
     13 O         -17.1174    1.8690   24.6975 O.2     1  LIG        -0.2644
     14 H         -14.8578   -1.8965   18.0762 H       1  LIG         0.0310
     15 H         -16.0749   -0.6495   17.7230 H       1  LIG         0.0310
     16 H         -16.4948   -2.0741   18.7311 H       1  LIG         0.0310
     17 H         -17.2424   -0.7160   20.5404 H       1  LIG         0.0446
     18 H         -16.6477    0.9215   20.3214 H       1  LIG         0.0446
     19 H         -15.5396    2.0128   21.9208 H       1  LIG         0.1502
     20 H         -14.6746    0.4047   24.2897 H       1  LIG         0.0615
     21 H         -13.7085    3.0539   23.1346 H       1  LIG         0.0315
     22 H         -12.7382    1.7831   23.8837 H       1  LIG         0.0315
     23 H         -13.4928    3.9984   25.2713 H       1  LIG         0.0574
     24 H         -13.4400    2.4217   26.0907 H       1  LIG         0.0574
@<TRIPOS>BOND
     1     1     2    1
     2     1    14    1
     3     1    15    1
     4     1    16    1
     5     2     3    2
     6     2     4    1
     7     4     5    1
     8     4    17    1
     9     4    18    1
    10     5     6    2
    11     5     7   am
    12     7     8    1
    13     7    19    1
    14     8     9    1
    15     8    12    1
    16     8    20    1
    17     9    10    1
    18     9    21    1
    19     9    22    1
    20    10    11    1
    21    10    23    1
    22    10    24    1
    23    11    12    1
    24    12    13    2
@<TRIPOS>SUBSTRUCTURE
     1 LIG         1 TEMP              0 ****  ****    0 ROOT

