
########## Name:		2.pdb_1
########## HA_RMSDs:		31.4368
########## HA_RMSDh:		31.2767
########## HA_RMSDm:		24.6713
##########    Grid Score:          -21.510498
##########      Grid_vdw:          -20.770874
##########       Grid_es:           -0.739623
##########    Int_energy:            1.765104

@<TRIPOS>MOLECULE
2.pdb
 24 24 1 0 0
SMALL
AMBER ff12SB


@<TRIPOS>ATOM
      1 C         -16.2657   -0.5324   18.2827 C.3     1  LIG        -0.0051
      2 C         -16.2335   -1.0102   19.7113 C.2     1  LIG         0.1384
      3 O         -17.0192   -1.8745   20.1074 O.2     1  LIG        -0.2995
      4 C         -15.2345   -0.3935   20.6543 C.3     1  LIG         0.0829
      5 C         -15.7507    0.8201   21.3783 C.2     1  LIG         0.2197
      6 O         -16.6212    1.5455   20.9037 O.2     1  LIG        -0.2772
      7 N         -15.2150    1.0267   22.6294 N.am    1  LIG        -0.3025
      8 C         -15.6262    2.1659   23.4391 C.3     1  LIG         0.1107
      9 C         -16.8118    1.8727   24.3357 C.3     1  LIG        -0.0007
     10 C         -16.5585    2.7446   25.5364 C.3     1  LIG         0.0587
     11 O         -15.1422    2.8675   25.6487 O.3     1  LIG        -0.3144
     12 C         -14.5676    2.5749   24.4470 C.2     1  LIG         0.2815
     13 O         -13.3655    2.6389   24.2305 O.2     1  LIG        -0.2644
     14 H         -17.2040   -0.8484   17.8169 H       1  LIG         0.0310
     15 H         -15.4320   -0.9610   17.7252 H       1  LIG         0.0310
     16 H         -16.2231    0.5612   18.2536 H       1  LIG         0.0310
     17 H         -14.3319   -0.1455   20.0863 H       1  LIG         0.0446
     18 H         -14.9422   -1.1429   21.3962 H       1  LIG         0.0446
     19 H         -14.3171    0.6051   22.8550 H       1  LIG         0.1502
     20 H         -15.8227    3.0211   22.7836 H       1  LIG         0.0615
     21 H         -16.8279    0.8177   24.6329 H       1  LIG         0.0315
     22 H         -17.7714    2.0939   23.8593 H       1  LIG         0.0315
     23 H         -16.9651    2.2953   26.4500 H       1  LIG         0.0574
     24 H         -16.9894    3.7441   25.4202 H       1  LIG         0.0574
@<TRIPOS>BOND
     1     1     2    1
     2     1    14    1
     3     1    15    1
     4     1    16    1
     5     2     3    2
     6     2     4    1
     7     4     5    1
     8     4    17    1
     9     4    18    1
    10     5     6    2
    11     5     7   am
    12     7     8    1
    13     7    19    1
    14     8     9    1
    15     8    12    1
    16     8    20    1
    17     9    10    1
    18     9    21    1
    19     9    22    1
    20    10    11    1
    21    10    23    1
    22    10    24    1
    23    11    12    1
    24    12    13    2
@<TRIPOS>SUBSTRUCTURE
     1 LIG         1 TEMP              0 ****  ****    0 ROOT


########## Name:		2.pdb_2
########## HA_RMSDs:		31.5533
########## HA_RMSDh:		31.3982
########## HA_RMSDm:		25.3173
##########    Grid Score:          -20.781191
##########      Grid_vdw:          -19.745728
##########       Grid_es:           -1.035463
##########    Int_energy:           15.503171

@<TRIPOS>MOLECULE
2.pdb
 24 24 1 0 0
SMALL
AMBER ff12SB


@<TRIPOS>ATOM
      1 C         -16.6609    0.1265   19.3505 C.3     1  LIG        -0.0051
      2 C         -15.5796   -0.7615   19.9095 C.2     1  LIG         0.1384
      3 O         -14.7319   -1.2683   19.1707 O.2     1  LIG        -0.2995
      4 C         -15.5679   -1.0367   21.3900 C.3     1  LIG         0.0829
      5 C         -16.1311    0.0839   22.2210 C.2     1  LIG         0.2197
      6 O         -17.3144    0.1264   22.5485 O.2     1  LIG        -0.2772
      7 N         -15.2150    1.0267   22.6294 N.am    1  LIG        -0.3025
      8 C         -15.6262    2.1659   23.4391 C.3     1  LIG         0.1107
      9 C         -16.8118    1.8727   24.3357 C.3     1  LIG        -0.0007
     10 C         -16.5585    2.7446   25.5364 C.3     1  LIG         0.0587
     11 O         -15.1422    2.8675   25.6487 O.3     1  LIG        -0.3144
     12 C         -14.5676    2.5749   24.4470 C.2     1  LIG         0.2815
     13 O         -13.3655    2.6389   24.2305 O.2     1  LIG        -0.2644
     14 H         -16.7104   -0.0037   18.2651 H       1  LIG         0.0310
     15 H         -16.4397    1.1713   19.5717 H       1  LIG         0.0310
     16 H         -17.6312   -0.1563   19.7714 H       1  LIG         0.0310
     17 H         -14.5387   -1.2572   21.6914 H       1  LIG         0.0446
     18 H         -16.1522   -1.9413   21.5841 H       1  LIG         0.0446
     19 H         -14.3458    1.1243   22.1100 H       1  LIG         0.1502
     20 H         -15.8227    3.0211   22.7836 H       1  LIG         0.0615
     21 H         -16.8279    0.8177   24.6329 H       1  LIG         0.0315
     22 H         -17.7714    2.0939   23.8593 H       1  LIG         0.0315
     23 H         -16.9651    2.2953   26.4500 H       1  LIG         0.0574
     24 H         -16.9894    3.7441   25.4202 H       1  LIG         0.0574
@<TRIPOS>BOND
     1     1     2    1
     2     1    14    1
     3     1    15    1
     4     1    16    1
     5     2     3    2
     6     2     4    1
     7     4     5    1
     8     4    17    1
     9     4    18    1
    10     5     6    2
    11     5     7   am
    12     7     8    1
    13     7    19    1
    14     8     9    1
    15     8    12    1
    16     8    20    1
    17     9    10    1
    18     9    21    1
    19     9    22    1
    20    10    11    1
    21    10    23    1
    22    10    24    1
    23    11    12    1
    24    12    13    2
@<TRIPOS>SUBSTRUCTURE
     1 LIG         1 TEMP              0 ****  ****    0 ROOT


########## Name:		2.pdb_3
########## HA_RMSDs:		31.3335
########## HA_RMSDh:		31.1473
########## HA_RMSDm:		24.4493
##########    Grid Score:          -17.124840
##########      Grid_vdw:          -17.300564
##########       Grid_es:            0.175724
##########    Int_energy:            2.335351

@<TRIPOS>MOLECULE
2.pdb
 24 24 1 0 0
SMALL
AMBER ff12SB


@<TRIPOS>ATOM
      1 C         -15.7149   -1.3483   18.4791 C.3     1  LIG        -0.0051
      2 C         -15.2902   -0.5998   19.7159 C.2     1  LIG         0.1384
      3 O         -14.0962   -0.4291   19.9736 O.2     1  LIG        -0.2995
      4 C         -16.3558   -0.0821   20.6454 C.3     1  LIG         0.0829
      5 C         -15.9254   -0.0135   22.0854 C.2     1  LIG         0.2197
      6 O         -16.0400   -0.9683   22.8500 O.2     1  LIG        -0.2772
      7 N         -15.3483    1.1764   22.4672 N.am    1  LIG        -0.3025
      8 C         -14.8870    1.3780   23.8344 C.3     1  LIG         0.1107
      9 C         -13.6960    2.3088   23.9385 C.3     1  LIG        -0.0007
     10 C         -13.9006    2.9807   25.2700 C.3     1  LIG         0.0587
     11 O         -15.3101    3.0259   25.4819 O.3     1  LIG        -0.3144
     12 C         -15.9144    2.0899   24.6955 C.2     1  LIG         0.2815
     13 O         -17.1174    1.8690   24.6975 O.2     1  LIG        -0.2644
     14 H         -14.8578   -1.8965   18.0762 H       1  LIG         0.0310
     15 H         -16.0749   -0.6495   17.7230 H       1  LIG         0.0310
     16 H         -16.4948   -2.0741   18.7311 H       1  LIG         0.0310
     17 H         -17.2424   -0.7160   20.5404 H       1  LIG         0.0446
     18 H         -16.6477    0.9215   20.3214 H       1  LIG         0.0446
     19 H         -15.5396    2.0128   21.9208 H       1  LIG         0.1502
     20 H         -14.6746    0.4047   24.2897 H       1  LIG         0.0615
     21 H         -13.7085    3.0539   23.1346 H       1  LIG         0.0315
     22 H         -12.7382    1.7831   23.8837 H       1  LIG         0.0315
     23 H         -13.4928    3.9984   25.2713 H       1  LIG         0.0574
     24 H         -13.4400    2.4217   26.0907 H       1  LIG         0.0574
@<TRIPOS>BOND
     1     1     2    1
     2     1    14    1
     3     1    15    1
     4     1    16    1
     5     2     3    2
     6     2     4    1
     7     4     5    1
     8     4    17    1
     9     4    18    1
    10     5     6    2
    11     5     7   am
    12     7     8    1
    13     7    19    1
    14     8     9    1
    15     8    12    1
    16     8    20    1
    17     9    10    1
    18     9    21    1
    19     9    22    1
    20    10    11    1
    21    10    23    1
    22    10    24    1
    23    11    12    1
    24    12    13    2
@<TRIPOS>SUBSTRUCTURE
     1 LIG         1 TEMP              0 ****  ****    0 ROOT


########## Name:		2.pdb_4
########## HA_RMSDs:		31.1592
########## HA_RMSDh:		30.9590
########## HA_RMSDm:		24.3639
##########    Grid Score:          -13.864125
##########      Grid_vdw:          -13.412457
##########       Grid_es:           -0.451668
##########    Int_energy:            1.815670

@<TRIPOS>MOLECULE
2.pdb
 24 24 1 0 0
SMALL
AMBER ff12SB


@<TRIPOS>ATOM
      1 C         -16.4525   -0.6735   18.3861 C.3     1  LIG        -0.0051
      2 C         -15.2279   -0.2507   19.1552 C.2     1  LIG         0.1384
      3 O         -14.2333    0.1862   18.5713 O.2     1  LIG        -0.2995
      4 C         -15.2345   -0.3935   20.6543 C.3     1  LIG         0.0829
      5 C         -15.7507    0.8201   21.3783 C.2     1  LIG         0.2197
      6 O         -16.6212    1.5455   20.9037 O.2     1  LIG        -0.2772
      7 N         -15.2150    1.0267   22.6294 N.am    1  LIG        -0.3025
      8 C         -15.6262    2.1659   23.4391 C.3     1  LIG         0.1107
      9 C         -16.8118    1.8727   24.3357 C.3     1  LIG        -0.0007
     10 C         -16.5585    2.7446   25.5364 C.3     1  LIG         0.0587
     11 O         -15.1422    2.8675   25.6487 O.3     1  LIG        -0.3144
     12 C         -14.5676    2.5749   24.4470 C.2     1  LIG         0.2815
     13 O         -13.3655    2.6389   24.2305 O.2     1  LIG        -0.2644
     14 H         -16.1948   -0.7837   17.3283 H       1  LIG         0.0310
     15 H         -17.2349    0.0802   18.4829 H       1  LIG         0.0310
     16 H         -16.8075   -1.6423   18.7522 H       1  LIG         0.0310
     17 H         -14.2173   -0.6313   20.9824 H       1  LIG         0.0446
     18 H         -15.8592   -1.2508   20.9231 H       1  LIG         0.0446
     19 H         -14.3171    0.6051   22.8550 H       1  LIG         0.1502
     20 H         -15.8227    3.0211   22.7836 H       1  LIG         0.0615
     21 H         -16.8279    0.8177   24.6329 H       1  LIG         0.0315
     22 H         -17.7714    2.0939   23.8593 H       1  LIG         0.0315
     23 H         -16.9651    2.2953   26.4500 H       1  LIG         0.0574
     24 H         -16.9894    3.7441   25.4202 H       1  LIG         0.0574
@<TRIPOS>BOND
     1     1     2    1
     2     1    14    1
     3     1    15    1
     4     1    16    1
     5     2     3    2
     6     2     4    1
     7     4     5    1
     8     4    17    1
     9     4    18    1
    10     5     6    2
    11     5     7   am
    12     7     8    1
    13     7    19    1
    14     8     9    1
    15     8    12    1
    16     8    20    1
    17     9    10    1
    18     9    21    1
    19     9    22    1
    20    10    11    1
    21    10    23    1
    22    10    24    1
    23    11    12    1
    24    12    13    2
@<TRIPOS>SUBSTRUCTURE
     1 LIG         1 TEMP              0 ****  ****    0 ROOT


########## Name:		2.pdb_5
########## HA_RMSDs:		31.3317
########## HA_RMSDh:		31.1476
########## HA_RMSDm:		23.8800
##########    Grid Score:          -13.056442
##########      Grid_vdw:          -12.871526
##########       Grid_es:           -0.184916
##########    Int_energy:            2.065692

@<TRIPOS>MOLECULE
2.pdb
 24 24 1 0 0
SMALL
AMBER ff12SB


@<TRIPOS>ATOM
      1 C         -15.2796   -0.1129   18.2901 C.3     1  LIG        -0.0051
      2 C         -15.2902   -0.5998   19.7159 C.2     1  LIG         0.1384
      3 O         -14.4567   -1.4185   20.1113 O.2     1  LIG        -0.2995
      4 C         -16.3558   -0.0821   20.6454 C.3     1  LIG         0.0829
      5 C         -15.9254   -0.0135   22.0854 C.2     1  LIG         0.2197
      6 O         -16.0400   -0.9683   22.8500 O.2     1  LIG        -0.2772
      7 N         -15.3483    1.1764   22.4672 N.am    1  LIG        -0.3025
      8 C         -14.8870    1.3780   23.8344 C.3     1  LIG         0.1107
      9 C         -13.6960    2.3088   23.9385 C.3     1  LIG        -0.0007
     10 C         -13.9006    2.9807   25.2700 C.3     1  LIG         0.0587
     11 O         -15.3101    3.0259   25.4819 O.3     1  LIG        -0.3144
     12 C         -15.9144    2.0899   24.6955 C.2     1  LIG         0.2815
     13 O         -17.1174    1.8690   24.6975 O.2     1  LIG        -0.2644
     14 H         -14.6549   -0.7776   17.6857 H       1  LIG         0.0310
     15 H         -14.8709    0.8972   18.2418 H       1  LIG         0.0310
     16 H         -16.2946   -0.1346   17.8804 H       1  LIG         0.0310
     17 H         -17.2424   -0.7160   20.5404 H       1  LIG         0.0446
     18 H         -16.6477    0.9215   20.3214 H       1  LIG         0.0446
     19 H         -15.5396    2.0128   21.9208 H       1  LIG         0.1502
     20 H         -14.6746    0.4047   24.2897 H       1  LIG         0.0615
     21 H         -13.7085    3.0539   23.1346 H       1  LIG         0.0315
     22 H         -12.7382    1.7831   23.8837 H       1  LIG         0.0315
     23 H         -13.4928    3.9984   25.2713 H       1  LIG         0.0574
     24 H         -13.4400    2.4217   26.0907 H       1  LIG         0.0574
@<TRIPOS>BOND
     1     1     2    1
     2     1    14    1
     3     1    15    1
     4     1    16    1
     5     2     3    2
     6     2     4    1
     7     4     5    1
     8     4    17    1
     9     4    18    1
    10     5     6    2
    11     5     7   am
    12     7     8    1
    13     7    19    1
    14     8     9    1
    15     8    12    1
    16     8    20    1
    17     9    10    1
    18     9    21    1
    19     9    22    1
    20    10    11    1
    21    10    23    1
    22    10    24    1
    23    11    12    1
    24    12    13    2
@<TRIPOS>SUBSTRUCTURE
     1 LIG         1 TEMP              0 ****  ****    0 ROOT


########## Name:		2.pdb_6
########## HA_RMSDs:		31.4445
########## HA_RMSDh:		31.2397
########## HA_RMSDm:		23.9494
##########    Grid Score:           -5.643927
##########      Grid_vdw:           -4.423521
##########       Grid_es:           -1.220406
##########    Int_energy:           15.293952

@<TRIPOS>MOLECULE
2.pdb
 24 24 1 0 0
SMALL
AMBER ff12SB


@<TRIPOS>ATOM
      1 C         -14.6039   -0.1138   19.1705 C.3     1  LIG        -0.0051
      2 C         -14.3733   -0.6402   20.5633 C.2     1  LIG         0.1384
      3 O         -13.2312   -0.7619   21.0128 O.2     1  LIG        -0.2995
      4 C         -15.5679   -1.0367   21.3900 C.3     1  LIG         0.0829
      5 C         -16.1311    0.0839   22.2210 C.2     1  LIG         0.2197
      6 O         -17.3144    0.1264   22.5485 O.2     1  LIG        -0.2772
      7 N         -15.2150    1.0267   22.6294 N.am    1  LIG        -0.3025
      8 C         -15.6262    2.1659   23.4391 C.3     1  LIG         0.1107
      9 C         -16.8118    1.8727   24.3357 C.3     1  LIG        -0.0007
     10 C         -16.5585    2.7446   25.5364 C.3     1  LIG         0.0587
     11 O         -15.1422    2.8675   25.6487 O.3     1  LIG        -0.3144
     12 C         -14.5676    2.5749   24.4470 C.2     1  LIG         0.2815
     13 O         -13.3655    2.6389   24.2305 O.2     1  LIG        -0.2644
     14 H         -13.6642   -0.1480   18.6109 H       1  LIG         0.0310
     15 H         -14.9530    0.9186   19.2128 H       1  LIG         0.0310
     16 H         -15.3329   -0.7429   18.6494 H       1  LIG         0.0310
     17 H         -15.2815   -1.8797   22.0273 H       1  LIG         0.0446
     18 H         -16.3529   -1.4019   20.7208 H       1  LIG         0.0446
     19 H         -14.3458    1.1243   22.1100 H       1  LIG         0.1502
     20 H         -15.8227    3.0211   22.7836 H       1  LIG         0.0615
     21 H         -16.8279    0.8177   24.6329 H       1  LIG         0.0315
     22 H         -17.7714    2.0939   23.8593 H       1  LIG         0.0315
     23 H         -16.9651    2.2953   26.4500 H       1  LIG         0.0574
     24 H         -16.9894    3.7441   25.4202 H       1  LIG         0.0574
@<TRIPOS>BOND
     1     1     2    1
     2     1    14    1
     3     1    15    1
     4     1    16    1
     5     2     3    2
     6     2     4    1
     7     4     5    1
     8     4    17    1
     9     4    18    1
    10     5     6    2
    11     5     7   am
    12     7     8    1
    13     7    19    1
    14     8     9    1
    15     8    12    1
    16     8    20    1
    17     9    10    1
    18     9    21    1
    19     9    22    1
    20    10    11    1
    21    10    23    1
    22    10    24    1
    23    11    12    1
    24    12    13    2
@<TRIPOS>SUBSTRUCTURE
     1 LIG         1 TEMP              0 ****  ****    0 ROOT


########## Name:		2.pdb_7
########## HA_RMSDs:		31.5308
########## HA_RMSDh:		31.3598
########## HA_RMSDm:		23.8657
##########    Grid Score:           -4.294990
##########      Grid_vdw:           -3.215448
##########       Grid_es:           -1.079542
##########    Int_energy:           14.736916

@<TRIPOS>MOLECULE
2.pdb
 24 24 1 0 0
SMALL
AMBER ff12SB


@<TRIPOS>ATOM
      1 C         -14.3798   -0.0913   19.2920 C.3     1  LIG        -0.0051
      2 C         -15.5796   -0.7615   19.9095 C.2     1  LIG         0.1384
      3 O         -16.5592   -1.0630   19.2233 O.2     1  LIG        -0.2995
      4 C         -15.5679   -1.0367   21.3900 C.3     1  LIG         0.0829
      5 C         -16.1311    0.0839   22.2210 C.2     1  LIG         0.2197
      6 O         -17.3144    0.1264   22.5485 O.2     1  LIG        -0.2772
      7 N         -15.2150    1.0267   22.6294 N.am    1  LIG        -0.3025
      8 C         -15.6262    2.1659   23.4391 C.3     1  LIG         0.1107
      9 C         -16.8118    1.8727   24.3357 C.3     1  LIG        -0.0007
     10 C         -16.5585    2.7446   25.5364 C.3     1  LIG         0.0587
     11 O         -15.1422    2.8675   25.6487 O.3     1  LIG        -0.3144
     12 C         -14.5676    2.5749   24.4470 C.2     1  LIG         0.2815
     13 O         -13.3655    2.6389   24.2305 O.2     1  LIG        -0.2644
     14 H         -14.6498    0.2946   18.3042 H       1  LIG         0.0310
     15 H         -13.5655   -0.8083   19.1811 H       1  LIG         0.0310
     16 H         -14.0635    0.7536   19.9122 H       1  LIG         0.0310
     17 H         -14.5387   -1.2572   21.6914 H       1  LIG         0.0446
     18 H         -16.1522   -1.9413   21.5841 H       1  LIG         0.0446
     19 H         -14.3458    1.1243   22.1100 H       1  LIG         0.1502
     20 H         -15.8227    3.0211   22.7836 H       1  LIG         0.0615
     21 H         -16.8279    0.8177   24.6329 H       1  LIG         0.0315
     22 H         -17.7714    2.0939   23.8593 H       1  LIG         0.0315
     23 H         -16.9651    2.2953   26.4500 H       1  LIG         0.0574
     24 H         -16.9894    3.7441   25.4202 H       1  LIG         0.0574
@<TRIPOS>BOND
     1     1     2    1
     2     1    14    1
     3     1    15    1
     4     1    16    1
     5     2     3    2
     6     2     4    1
     7     4     5    1
     8     4    17    1
     9     4    18    1
    10     5     6    2
    11     5     7   am
    12     7     8    1
    13     7    19    1
    14     8     9    1
    15     8    12    1
    16     8    20    1
    17     9    10    1
    18     9    21    1
    19     9    22    1
    20    10    11    1
    21    10    23    1
    22    10    24    1
    23    11    12    1
    24    12    13    2
@<TRIPOS>SUBSTRUCTURE
     1 LIG         1 TEMP              0 ****  ****    0 ROOT

