@<TRIPOS>MOLECULE
3.pdb
31 31 1 0 0
SMALL
AMBER ff12SB


@<TRIPOS>ATOM
      1 C           1.4940   -1.2950    2.4710 C.3       1 LIG   -0.0654
      2 C           2.9440   -1.0460    2.0850 C.3       1 LIG   -0.0562
      3 C           3.3490   -1.8560    0.8520 C.3       1 LIG   -0.0531
      4 C           4.8040   -1.5870    0.4630 C.3       1 LIG   -0.0447
      5 C           5.2330   -2.4040   -0.7580 C.3       1 LIG    0.0244
      6 C           6.6820   -2.1410   -1.1250 C.2       1 LIG    0.2123
      7 O           7.3970   -1.3420   -0.5350 O.2       1 LIG   -0.2777
      8 N           7.1390   -2.9160   -2.1680 N.am      1 LIG   -0.3028
      9 C           8.5180   -2.8150   -2.6210 C.3       1 LIG    0.1107
     10 C           9.5170   -3.2340   -1.5650 C.3       1 LIG   -0.0007
     11 C          10.6660   -3.7670   -2.3780 C.3       1 LIG    0.0587
     12 O          10.0870   -4.3160   -3.5620 O.3       1 LIG   -0.3144
     13 C           8.8330   -3.7990   -3.7320 C.2       1 LIG    0.2815
     14 O           8.0870   -4.0930   -4.6540 O.2       1 LIG   -0.2644
     15 H           1.2680   -0.8120    3.4270 H         1 LIG    0.0230
     16 H           1.2900   -2.3650    2.5760 H         1 LIG    0.0230
     17 H           0.8140   -0.8870    1.7170 H         1 LIG    0.0230
     18 H           3.5900   -1.3110    2.9300 H         1 LIG    0.0264
     19 H           3.0850    0.0250    1.8950 H         1 LIG    0.0264
     20 H           2.6910   -1.6040    0.0120 H         1 LIG    0.0267
     21 H           3.2180   -2.9250    1.0590 H         1 LIG    0.0267
     22 H           5.4600   -1.8250    1.3110 H         1 LIG    0.0272
     23 H           4.9370   -0.5190    0.2550 H         1 LIG    0.0272
     24 H           4.6040   -2.1570   -1.6200 H         1 LIG    0.0365
     25 H           5.1250   -3.4740   -0.5450 H         1 LIG    0.0365
     26 H           6.4740   -3.3860   -2.7740 H         1 LIG    0.1502
     27 H           8.7140   -1.8000   -2.9850 H         1 LIG    0.0615
     28 H           9.1010   -4.0340   -0.9380 H         1 LIG    0.0315
     29 H           9.8190   -2.4180   -0.9010 H         1 LIG    0.0315
     30 H          11.2080   -4.5500   -1.8380 H         1 LIG    0.0574
     31 H          11.3730   -2.9820   -2.6630 H         1 LIG    0.0574
@<TRIPOS>BOND
     1    1    2 1
     2    1   15 1
     3    1   16 1
     4    1   17 1
     5    2    3 1
     6    2   18 1
     7    2   19 1
     8    3    4 1
     9    3   20 1
    10    3   21 1
    11    4    5 1
    12    4   22 1
    13    4   23 1
    14    5    6 1
    15    5   24 1
    16    5   25 1
    17    6    7 2
    18    6    8 am
    19    8    9 1
    20    8   26 1
    21    9   10 1
    22    9   13 1
    23    9   27 1
    24   10   11 1
    25   10   28 1
    26   10   29 1
    27   11   12 1
    28   11   30 1
    29   11   31 1
    30   12   13 1
    31   13   14 2
@<TRIPOS>SUBSTRUCTURE
     1 LIG     1 RESIDUE           4 A     LIG     0 ROOT
