@<TRIPOS>MOLECULE
4.pdb
37 37 1 0 0
SMALL
AMBER ff12SB


@<TRIPOS>ATOM
      1 C           4.9810   -3.9630   -3.8580 C.3       1 LIG   -0.0654
      2 C           4.4160   -2.5720   -4.1230 C.3       1 LIG   -0.0562
      3 C           5.0040   -1.5220   -3.1760 C.3       1 LIG   -0.0536
      4 C           4.4410   -0.1180   -3.4430 C.3       1 LIG   -0.0533
      5 C           5.0130    0.9640   -2.5150 C.3       1 LIG   -0.0528
      6 C           6.5300    1.1570   -2.6090 C.3       1 LIG   -0.0447
      7 C           7.0690    1.5510   -3.9860 C.3       1 LIG    0.0244
      8 C           6.6160    2.9070   -4.5100 C.2       1 LIG    0.2123
      9 O           5.9670    3.0330   -5.5440 O.2       1 LIG   -0.2777
     10 N           7.0350    3.9760   -3.7550 N.am      1 LIG   -0.3028
     11 C           6.8050    5.3600   -4.1530 C.3       1 LIG    0.1107
     12 C           5.5090    5.9250   -3.6140 C.3       1 LIG   -0.0007
     13 C           5.8230    7.3960   -3.4800 C.3       1 LIG    0.0587
     14 O           7.2130    7.4720   -3.1660 O.3       1 LIG   -0.3144
     15 C           7.8220    6.3000   -3.5230 C.2       1 LIG    0.2815
     16 O           9.0000    6.0590   -3.3490 O.2       1 LIG   -0.2644
     17 H           4.5530   -4.6850   -4.5620 H         1 LIG    0.0230
     18 H           4.7470   -4.3040   -2.8450 H         1 LIG    0.0230
     19 H           6.0690   -3.9790   -3.9830 H         1 LIG    0.0230
     20 H           3.3260   -2.6040   -4.0190 H         1 LIG    0.0264
     21 H           4.6380   -2.2960   -5.1600 H         1 LIG    0.0264
     22 H           6.0920   -1.5170   -3.3020 H         1 LIG    0.0266
     23 H           4.7990   -1.8070   -2.1370 H         1 LIG    0.0266
     24 H           3.3510   -0.1360   -3.3140 H         1 LIG    0.0267
     25 H           4.6230    0.1660   -4.4850 H         1 LIG    0.0267
     26 H           4.7590    0.7080   -1.4770 H         1 LIG    0.0267
     27 H           4.5130    1.9180   -2.7210 H         1 LIG    0.0267
     28 H           7.0210    0.2230   -2.3100 H         1 LIG    0.0272
     29 H           6.8360    1.9010   -1.8640 H         1 LIG    0.0272
     30 H           6.8300    0.7870   -4.7330 H         1 LIG    0.0365
     31 H           8.1640    1.5780   -3.9200 H         1 LIG    0.0365
     32 H           7.7400    3.8090   -3.0450 H         1 LIG    0.1502
     33 H           6.8680    5.4730   -5.2420 H         1 LIG    0.0615
     34 H           5.2800    5.5040   -2.6270 H         1 LIG    0.0315
     35 H           4.6470    5.7370   -4.2610 H         1 LIG    0.0315
     36 H           5.2450    7.8640   -2.6770 H         1 LIG    0.0574
     37 H           5.6440    7.9470   -4.4090 H         1 LIG    0.0574
@<TRIPOS>BOND
     1    1    2 1
     2    1   17 1
     3    1   18 1
     4    1   19 1
     5    2    3 1
     6    2   20 1
     7    2   21 1
     8    3    4 1
     9    3   22 1
    10    3   23 1
    11    4    5 1
    12    4   24 1
    13    4   25 1
    14    5    6 1
    15    5   26 1
    16    5   27 1
    17    6    7 1
    18    6   28 1
    19    6   29 1
    20    7    8 1
    21    7   30 1
    22    7   31 1
    23    8    9 2
    24    8   10 am
    25   10   11 1
    26   10   32 1
    27   11   12 1
    28   11   15 1
    29   11   33 1
    30   12   13 1
    31   12   34 1
    32   12   35 1
    33   13   14 1
    34   13   36 1
    35   13   37 1
    36   14   15 1
    37   15   16 2
@<TRIPOS>SUBSTRUCTURE
     1 LIG     1 RESIDUE           4 A     LIG     0 ROOT
