@<TRIPOS>MOLECULE
5.pdb
36 36 1 0 0
SMALL
AMBER ff12SB


@<TRIPOS>ATOM
      1 C           3.7400   -2.1970    1.7420 C.3       1 LIG   -0.0654
      2 C           3.9770   -0.8070    1.1640 C.3       1 LIG   -0.0562
      3 C           4.6070   -0.8500   -0.2330 C.3       1 LIG   -0.0531
      4 C           4.8610    0.5590   -0.7970 C.3       1 LIG   -0.0464
      5 C           5.4870    0.5460   -2.1980 C.3       1 LIG    0.0066
      6 C           6.8620   -0.0940   -2.2130 C.2       1 LIG    0.1415
      7 O           7.5900   -0.0880   -1.2170 O.2       1 LIG   -0.2992
      8 C           7.3230   -0.7560   -3.4860 C.3       1 LIG    0.0832
      9 C           7.5980   -2.2390   -3.3660 C.2       1 LIG    0.2197
     10 O           7.5150   -2.9800   -4.3440 O.2       1 LIG   -0.2772
     11 N           8.0280   -2.6890   -2.1410 N.am      1 LIG   -0.3025
     12 C           8.3780   -4.0820   -1.9250 C.3       1 LIG    0.1107
     13 C           9.8210   -4.4160   -2.2510 C.3       1 LIG   -0.0007
     14 C          10.4140   -4.8850   -0.9410 C.3       1 LIG    0.0587
     15 O           9.3310   -5.2120   -0.0820 O.3       1 LIG   -0.3144
     16 C           8.2460   -4.4780   -0.4660 C.2       1 LIG    0.2815
     17 O           7.3200   -4.1950    0.2630 O.2       1 LIG   -0.2644
     18 H           3.2680   -2.1200    2.7280 H         1 LIG    0.0230
     19 H           4.6790   -2.7460    1.8640 H         1 LIG    0.0230
     20 H           3.0770   -2.7870    1.1010 H         1 LIG    0.0230
     21 H           4.6250   -0.2470    1.8490 H         1 LIG    0.0264
     22 H           3.0180   -0.2770    1.1190 H         1 LIG    0.0264
     23 H           3.9450   -1.3980   -0.9140 H         1 LIG    0.0267
     24 H           5.5470   -1.4100   -0.1800 H         1 LIG    0.0267
     25 H           5.5080    1.1200   -0.1110 H         1 LIG    0.0271
     26 H           3.9090    1.1020   -0.8490 H         1 LIG    0.0271
     27 H           5.6040    1.5730   -2.5650 H         1 LIG    0.0347
     28 H           4.8290    0.0130   -2.8920 H         1 LIG    0.0347
     29 H           8.2420   -0.2580   -3.8170 H         1 LIG    0.0446
     30 H           6.5730   -0.6080   -4.2700 H         1 LIG    0.0446
     31 H           7.7710   -2.1400   -1.3180 H         1 LIG    0.1502
     32 H           7.7030   -4.7140   -2.5100 H         1 LIG    0.0615
     33 H          10.4010   -3.5930   -2.6820 H         1 LIG    0.0315
     34 H           9.8490   -5.2370   -2.9770 H         1 LIG    0.0315
     35 H          11.0000   -4.0980   -0.4530 H         1 LIG    0.0574
     36 H          11.0600   -5.7580   -1.0760 H         1 LIG    0.0574
@<TRIPOS>BOND
     1    1    2 1
     2    1   18 1
     3    1   19 1
     4    1   20 1
     5    2    3 1
     6    2   21 1
     7    2   22 1
     8    3    4 1
     9    3   23 1
    10    3   24 1
    11    4    5 1
    12    4   25 1
    13    4   26 1
    14    5    6 1
    15    5   27 1
    16    5   28 1
    17    6    7 2
    18    6    8 1
    19    8    9 1
    20    8   29 1
    21    8   30 1
    22    9   10 2
    23    9   11 am
    24   11   12 1
    25   11   31 1
    26   12   13 1
    27   12   16 1
    28   12   32 1
    29   13   14 1
    30   13   33 1
    31   13   34 1
    32   14   15 1
    33   14   35 1
    34   14   36 1
    35   15   16 1
    36   16   17 2
@<TRIPOS>SUBSTRUCTURE
     1 LIG     1 RESIDUE           4 A     LIG     0 ROOT
