@<TRIPOS>MOLECULE
6.pdb
43 43 1 0 0
SMALL
AMBER ff12SB


@<TRIPOS>ATOM
      1 C           5.3380    1.0710    3.0410 C.3       1 LIG   -0.0654
      2 C           4.6390    0.8420    1.7070 C.3       1 LIG   -0.0562
      3 C           5.1150    1.8220    0.6350 C.3       1 LIG   -0.0536
      4 C           4.4290    1.5760   -0.7170 C.3       1 LIG   -0.0533
      5 C           4.9340    2.5020   -1.8340 C.3       1 LIG   -0.0533
      6 C           6.4230    2.2930   -2.1250 C.3       1 LIG   -0.0533
      7 C           6.9480    3.1790   -3.2540 C.3       1 LIG   -0.0528
      8 C           8.4470    2.9340   -3.4760 C.3       1 LIG   -0.0447
      9 C           9.0540    3.7730   -4.6040 C.3       1 LIG    0.0244
     10 C           9.1980    5.2510   -4.2750 C.2       1 LIG    0.2123
     11 O           8.4820    5.8450   -3.4790 O.2       1 LIG   -0.2777
     12 N          10.2090    5.8880   -4.9690 N.am      1 LIG   -0.3028
     13 C          10.4390    7.3150   -4.7780 C.3       1 LIG    0.1107
     14 C          10.8100    7.6790   -3.3550 C.3       1 LIG   -0.0007
     15 C          11.5720    8.9630   -3.5470 C.3       1 LIG    0.0587
     16 O          12.2990    8.7880   -4.7610 O.3       1 LIG   -0.3144
     17 C          11.6410    7.8650   -5.5400 C.2       1 LIG    0.2815
     18 O          11.9670    7.5670   -6.6710 O.2       1 LIG   -0.2644
     19 H           5.1160    0.2490    3.7290 H         1 LIG    0.0230
     20 H           4.9950    2.0000    3.5060 H         1 LIG    0.0230
     21 H           6.4260    1.1280    2.9260 H         1 LIG    0.0230
     22 H           3.5570    0.9400    1.8490 H         1 LIG    0.0264
     23 H           4.8340   -0.1850    1.3760 H         1 LIG    0.0264
     24 H           6.1990    1.7130    0.5350 H         1 LIG    0.0266
     25 H           4.9210    2.8510    0.9600 H         1 LIG    0.0266
     26 H           3.3470    1.7180   -0.6030 H         1 LIG    0.0267
     27 H           4.5780    0.5340   -1.0250 H         1 LIG    0.0267
     28 H           4.7450    3.5470   -1.5590 H         1 LIG    0.0267
     29 H           4.3520    2.3060   -2.7450 H         1 LIG    0.0267
     30 H           6.6000    1.2390   -2.3700 H         1 LIG    0.0267
     31 H           7.0040    2.5220   -1.2260 H         1 LIG    0.0267
     32 H           6.7650    4.2250   -2.9910 H         1 LIG    0.0267
     33 H           6.4000    2.9740   -4.1800 H         1 LIG    0.0267
     34 H           8.5870    1.8740   -3.7310 H         1 LIG    0.0272
     35 H           8.9990    3.1040   -2.5420 H         1 LIG    0.0272
     36 H           8.4480    3.6780   -5.5110 H         1 LIG    0.0364
     37 H          10.0510    3.3730   -4.8240 H         1 LIG    0.0364
     38 H          10.5430    5.4680   -5.8310 H         1 LIG    0.1502
     39 H           9.5540    7.8620   -5.1120 H         1 LIG    0.0615
     40 H          11.4650    6.9150   -2.9160 H         1 LIG    0.0315
     41 H           9.9460    7.8030   -2.6970 H         1 LIG    0.0315
     42 H          12.2600    9.1560   -2.7190 H         1 LIG    0.0574
     43 H          10.9070    9.8250   -3.6620 H         1 LIG    0.0574
@<TRIPOS>BOND
     1    1    2 1
     2    1   19 1
     3    1   20 1
     4    1   21 1
     5    2    3 1
     6    2   22 1
     7    2   23 1
     8    3    4 1
     9    3   24 1
    10    3   25 1
    11    4    5 1
    12    4   26 1
    13    4   27 1
    14    5    6 1
    15    5   28 1
    16    5   29 1
    17    6    7 1
    18    6   30 1
    19    6   31 1
    20    7    8 1
    21    7   32 1
    22    7   33 1
    23    8    9 1
    24    8   34 1
    25    8   35 1
    26    9   10 1
    27    9   36 1
    28    9   37 1
    29   10   11 2
    30   10   12 am
    31   12   13 1
    32   12   38 1
    33   13   14 1
    34   13   17 1
    35   13   39 1
    36   14   15 1
    37   14   40 1
    38   14   41 1
    39   15   16 1
    40   15   42 1
    41   15   43 1
    42   16   17 1
    43   17   18 2
@<TRIPOS>SUBSTRUCTURE
     1 LIG     1 RESIDUE           4 A     LIG     0 ROOT
