@<TRIPOS>MOLECULE
7.pdb
44 44 1 0 0
SMALL
AMBER ff12SB


@<TRIPOS>ATOM
      1 C           2.7080   -1.4900    0.4690 C.3       1 LIG   -0.0654
      2 C           2.1430   -0.0810    0.5880 C.3       1 LIG   -0.0562
      3 C           2.7220    0.6940    1.7750 C.3       1 LIG   -0.0536
      4 C           4.2390    0.8670    1.6690 C.3       1 LIG   -0.0533
      5 C           4.8180    1.6240    2.8600 C.3       1 LIG   -0.0532
      6 C           6.3380    1.7720    2.7350 C.3       1 LIG   -0.0508
      7 C           6.9170    2.5230    3.9420 C.3       1 LIG   -0.0265
      8 C           8.4530    2.5760    3.9200 C.3       1 LIG    0.0625
      9 O           8.8880    3.2840    2.7490 O.3       1 LIG   -0.3926
     10 C           9.0740    3.2500    5.1520 C.3       1 LIG    0.0504
     11 C           8.8700    2.5000    6.4600 C.2       1 LIG    0.2149
     12 O           8.2530    1.4480    6.5610 O.2       1 LIG   -0.2776
     13 N           9.4760    3.1080    7.5380 N.am      1 LIG   -0.3028
     14 C           9.4560    2.5210    8.8740 C.3       1 LIG    0.1107
     15 C          10.5780    1.5260    9.0860 C.3       1 LIG   -0.0007
     16 C          10.8470    1.6370   10.5650 C.3       1 LIG    0.0587
     17 O          10.5710    2.9950   10.9070 O.3       1 LIG   -0.3144
     18 C           9.7620    3.5360    9.9540 C.2       1 LIG    0.2815
     19 O           9.3570    4.7010    9.9770 O.2       1 LIG   -0.2644
     20 H           2.2720   -2.0050   -0.3910 H         1 LIG    0.0230
     21 H           2.4910   -2.0720    1.3710 H         1 LIG    0.0230
     22 H           3.7910   -1.4800    0.3200 H         1 LIG    0.0230
     23 H           1.0530   -0.1440    0.6980 H         1 LIG    0.0264
     24 H           2.3370    0.4680   -0.3400 H         1 LIG    0.0264
     25 H           2.4660    0.1770    2.7080 H         1 LIG    0.0266
     26 H           2.2420    1.6800    1.8180 H         1 LIG    0.0266
     27 H           4.4820    1.3910    0.7370 H         1 LIG    0.0267
     28 H           4.7270   -0.1130    1.6270 H         1 LIG    0.0267
     29 H           4.5800    1.0770    3.7810 H         1 LIG    0.0267
     30 H           4.3510    2.6120    2.9360 H         1 LIG    0.0267
     31 H           6.5830    2.3010    1.8060 H         1 LIG    0.0267
     32 H           6.7940    0.7750    2.6670 H         1 LIG    0.0267
     33 H           6.5690    2.0230    4.8510 H         1 LIG    0.0293
     34 H           6.5070    3.5390    3.9500 H         1 LIG    0.0293
     35 H           8.8470    1.5590    3.8250 H         1 LIG    0.0606
     36 H           8.7090    4.2330    2.8700 H         1 LIG    0.2105
     37 H           8.7000    4.2760    5.2570 H         1 LIG    0.0392
     38 H          10.1570    3.3320    4.9880 H         1 LIG    0.0392
     39 H           9.7890    4.0700    7.4570 H         1 LIG    0.1502
     40 H           8.4770    2.0700    9.0790 H         1 LIG    0.0615
     41 H          11.4720    1.8290    8.5270 H         1 LIG    0.0315
     42 H          10.3250    0.5070    8.7790 H         1 LIG    0.0315
     43 H          11.8910    1.4040   10.8050 H         1 LIG    0.0574
     44 H          10.1980    0.9910   11.1630 H         1 LIG    0.0574
@<TRIPOS>BOND
     1    1    2 1
     2    1   20 1
     3    1   21 1
     4    1   22 1
     5    2    3 1
     6    2   23 1
     7    2   24 1
     8    3    4 1
     9    3   25 1
    10    3   26 1
    11    4    5 1
    12    4   27 1
    13    4   28 1
    14    5    6 1
    15    5   29 1
    16    5   30 1
    17    6    7 1
    18    6   31 1
    19    6   32 1
    20    7    8 1
    21    7   33 1
    22    7   34 1
    23    8    9 1
    24    8   10 1
    25    8   35 1
    26    9   36 1
    27   10   11 1
    28   10   37 1
    29   10   38 1
    30   11   12 2
    31   11   13 am
    32   13   14 1
    33   13   39 1
    34   14   15 1
    35   14   18 1
    36   14   40 1
    37   15   16 1
    38   15   41 1
    39   15   42 1
    40   16   17 1
    41   16   43 1
    42   16   44 1
    43   17   18 1
    44   18   19 2
@<TRIPOS>SUBSTRUCTURE
     1 LIG     1 RESIDUE           4 A     LIG     0 ROOT
