@<TRIPOS>MOLECULE
8.pdb
42 42 1 0 0
SMALL
AMBER ff12SB


@<TRIPOS>ATOM
      1 C           2.1900    4.0810   -1.3370 C.3       1 LIG   -0.0654
      2 C           3.2770    3.5460   -0.4160 C.3       1 LIG   -0.0562
      3 C           4.3590    2.7880   -1.1850 C.3       1 LIG   -0.0536
      4 C           5.4630    2.2030   -0.2930 C.3       1 LIG   -0.0533
      5 C           6.1520    3.2380    0.6010 C.3       1 LIG   -0.0529
      6 C           7.2790    2.6180    1.4300 C.3       1 LIG   -0.0464
      7 C           7.9880    3.6680    2.2860 C.3       1 LIG    0.0066
      8 C           9.0440    3.0430    3.1810 C.2       1 LIG    0.1415
      9 O           8.9920    3.1760    4.4070 O.2       1 LIG   -0.2992
     10 C          10.1360    2.2420    2.5190 C.3       1 LIG    0.0832
     11 C          11.4850    2.3520    3.1800 C.2       1 LIG    0.2197
     12 O          12.4600    2.7950    2.5890 O.2       1 LIG   -0.2772
     13 N          11.5480    1.8640    4.4650 N.am      1 LIG   -0.3025
     14 C          12.7680    1.9630    5.2320 C.3       1 LIG    0.1107
     15 C          12.9400    3.2940    5.9300 C.3       1 LIG   -0.0007
     16 C          13.9180    2.9280    7.0200 C.3       1 LIG    0.0587
     17 O          13.5420    1.6160    7.4380 O.3       1 LIG   -0.3144
     18 C          12.8230    1.0250    6.4330 C.2       1 LIG    0.2815
     19 O          12.3180   -0.0800    6.5090 O.2       1 LIG   -0.2644
     20 H           1.3580    4.4760   -0.7450 H         1 LIG    0.0230
     21 H           1.8020    3.3000   -1.9980 H         1 LIG    0.0230
     22 H           2.5760    4.8970   -1.9560 H         1 LIG    0.0230
     23 H           2.8310    2.8790    0.3300 H         1 LIG    0.0264
     24 H           3.7090    4.4000    0.1160 H         1 LIG    0.0264
     25 H           4.8090    3.4470   -1.9380 H         1 LIG    0.0266
     26 H           3.8900    1.9560   -1.7270 H         1 LIG    0.0266
     27 H           6.2090    1.7320   -0.9450 H         1 LIG    0.0267
     28 H           5.0390    1.4040    0.3270 H         1 LIG    0.0267
     29 H           5.4260    3.6810    1.2910 H         1 LIG    0.0267
     30 H           6.5520    4.0460   -0.0230 H         1 LIG    0.0267
     31 H           7.9970    2.1330    0.7590 H         1 LIG    0.0271
     32 H           6.8740    1.8320    2.0780 H         1 LIG    0.0271
     33 H           7.2650    4.1830    2.9300 H         1 LIG    0.0347
     34 H           8.4660    4.4320    1.6610 H         1 LIG    0.0347
     35 H          10.2520    2.6080    1.4930 H         1 LIG    0.0446
     36 H           9.8390    1.1880    2.4770 H         1 LIG    0.0446
     37 H          10.6790    1.6490    4.9510 H         1 LIG    0.1502
     38 H          13.6280    1.7400    4.5960 H         1 LIG    0.0615
     39 H          11.9930    3.6240    6.3800 H         1 LIG    0.0315
     40 H          13.2990    4.0940    5.2780 H         1 LIG    0.0315
     41 H          13.8680    3.6110    7.8700 H         1 LIG    0.0574
     42 H          14.9520    2.8980    6.6500 H         1 LIG    0.0574
@<TRIPOS>BOND
     1    1    2 1
     2    1   20 1
     3    1   21 1
     4    1   22 1
     5    2    3 1
     6    2   23 1
     7    2   24 1
     8    3    4 1
     9    3   25 1
    10    3   26 1
    11    4    5 1
    12    4   27 1
    13    4   28 1
    14    5    6 1
    15    5   29 1
    16    5   30 1
    17    6    7 1
    18    6   31 1
    19    6   32 1
    20    7    8 1
    21    7   33 1
    22    7   34 1
    23    8    9 2
    24    8   10 1
    25   10   11 1
    26   10   35 1
    27   10   36 1
    28   11   12 2
    29   11   13 am
    30   13   14 1
    31   13   37 1
    32   14   15 1
    33   14   18 1
    34   14   38 1
    35   15   16 1
    36   15   39 1
    37   15   40 1
    38   16   17 1
    39   16   41 1
    40   16   42 1
    41   17   18 1
    42   18   19 2
@<TRIPOS>SUBSTRUCTURE
     1 LIG     1 RESIDUE           4 A     LIG     0 ROOT
