@<TRIPOS>MOLECULE
9.pdb
49 49 1 0 0
SMALL
AMBER ff12SB


@<TRIPOS>ATOM
      1 C           6.4790   -4.7640    2.6370 C.3       1 LIG   -0.0654
      2 C           5.5620   -3.7650    1.9410 C.3       1 LIG   -0.0562
      3 C           6.0580   -3.4580    0.5300 C.3       1 LIG   -0.0536
      4 C           5.1540   -2.4780   -0.2270 C.3       1 LIG   -0.0533
      5 C           5.6770   -2.1850   -1.6500 C.3       1 LIG   -0.0533
      6 C           5.7160   -3.4410   -2.5320 C.3       1 LIG   -0.0533
      7 C           6.1940   -3.2520   -3.9770 C.3       1 LIG   -0.0533
      8 C           7.6100   -2.7040   -4.2020 C.3       1 LIG   -0.0533
      9 C           8.7470   -3.6030   -3.7060 C.3       1 LIG   -0.0528
     10 C          10.1260   -2.9940   -4.0190 C.3       1 LIG   -0.0447
     11 C          11.2680   -3.8900   -3.5400 C.3       1 LIG    0.0244
     12 C          11.2700   -4.1240   -2.0380 C.2       1 LIG    0.2123
     13 O          10.9470   -5.2060   -1.5580 O.2       1 LIG   -0.2777
     14 N          11.6660   -3.0550   -1.2630 N.am      1 LIG   -0.3028
     15 C          11.5880   -3.1150    0.1920 C.3       1 LIG    0.1107
     16 C          12.5480   -4.0910    0.8410 C.3       1 LIG   -0.0007
     17 C          13.6720   -3.2100    1.3270 C.3       1 LIG    0.0587
     18 O          13.0750   -1.9630    1.6510 O.3       1 LIG   -0.3144
     19 C          11.9620   -1.7920    0.8620 C.2       1 LIG    0.2815
     20 O          11.4170   -0.7250    0.6830 O.2       1 LIG   -0.2644
     21 H           6.1960   -4.8720    3.6880 H         1 LIG    0.0230
     22 H           7.5240   -4.4380    2.5980 H         1 LIG    0.0230
     23 H           6.4130   -5.7510    2.1660 H         1 LIG    0.0230
     24 H           5.5170   -2.8430    2.5300 H         1 LIG    0.0264
     25 H           4.5480   -4.1810    1.9010 H         1 LIG    0.0264
     26 H           6.1230   -4.4050   -0.0140 H         1 LIG    0.0266
     27 H           7.0710   -3.0400    0.5790 H         1 LIG    0.0266
     28 H           5.0980   -1.5340    0.3300 H         1 LIG    0.0267
     29 H           4.1310   -2.8700   -0.2770 H         1 LIG    0.0267
     30 H           6.6760   -1.7430   -1.5730 H         1 LIG    0.0267
     31 H           5.0270   -1.4310   -2.1120 H         1 LIG    0.0267
     32 H           4.6990   -3.8530   -2.5730 H         1 LIG    0.0267
     33 H           6.3410   -4.2090   -2.0720 H         1 LIG    0.0267
     34 H           5.4880   -2.5930   -4.4950 H         1 LIG    0.0267
     35 H           6.1190   -4.2290   -4.4750 H         1 LIG    0.0267
     36 H           7.7010   -1.7120   -3.7490 H         1 LIG    0.0267
     37 H           7.7380   -2.5670   -5.2840 H         1 LIG    0.0267
     38 H           8.6810   -4.5890   -4.1830 H         1 LIG    0.0267
     39 H           8.6500   -3.7540   -2.6270 H         1 LIG    0.0267
     40 H          10.2090   -1.9970   -3.5720 H         1 LIG    0.0272
     41 H          10.2230   -2.8610   -5.1050 H         1 LIG    0.0272
     42 H          12.2380   -3.4700   -3.8340 H         1 LIG    0.0364
     43 H          11.1920   -4.8680   -4.0330 H         1 LIG    0.0364
     44 H          11.8070   -2.1510   -1.7010 H         1 LIG    0.1502
     45 H          10.5530   -3.3600    0.4820 H         1 LIG    0.0615
     46 H          12.9070   -4.8930    0.1930 H         1 LIG    0.0315
     47 H          12.0580   -4.5510    1.7070 H         1 LIG    0.0315
     48 H          14.4300   -3.0400    0.5550 H         1 LIG    0.0574
     49 H          14.1610   -3.6300    2.2110 H         1 LIG    0.0574
@<TRIPOS>BOND
     1    1    2 1
     2    1   21 1
     3    1   22 1
     4    1   23 1
     5    2    3 1
     6    2   24 1
     7    2   25 1
     8    3    4 1
     9    3   26 1
    10    3   27 1
    11    4    5 1
    12    4   28 1
    13    4   29 1
    14    5    6 1
    15    5   30 1
    16    5   31 1
    17    6    7 1
    18    6   32 1
    19    6   33 1
    20    7    8 1
    21    7   34 1
    22    7   35 1
    23    8    9 1
    24    8   36 1
    25    8   37 1
    26    9   10 1
    27    9   38 1
    28    9   39 1
    29   10   11 1
    30   10   40 1
    31   10   41 1
    32   11   12 1
    33   11   42 1
    34   11   43 1
    35   12   13 2
    36   12   14 am
    37   14   15 1
    38   14   44 1
    39   15   16 1
    40   15   19 1
    41   15   45 1
    42   16   17 1
    43   16   46 1
    44   16   47 1
    45   17   18 1
    46   17   48 1
    47   17   49 1
    48   18   19 1
    49   19   20 2
@<TRIPOS>SUBSTRUCTURE
     1 LIG     1 RESIDUE           4 A     LIG     0 ROOT
